 Abaqus/Standard Learning Edition 2025                  DATE 22-Apr-2026 TIME 11:43:47
 SUMMARY OF JOB INFORMATION:
 STEP  INC ATT SEVERE EQUIL TOTAL  TOTAL      STEP       INC OF       DOF    IF
               DISCON ITERS ITERS  TIME/    TIME/LPF    TIME/LPF    MONITOR RIKS
               ITERS               FREQ
   1     1   1     0     6     6  0.0500     0.0500     0.05000   
   1     2   1     0     8     8  0.100      0.100      0.05000   
   1     3   1     0     5     5  0.150      0.150      0.05000   
   1     4   1     0     4     4  0.200      0.200      0.05000   
   1     5   1     0     2     2  0.250      0.250      0.05000   
   1     6   1     0     2     2  0.325      0.325      0.07500   
   1     7   1     0     2     2  0.438      0.438      0.1125    
   1     8   1     0     4     4  0.606      0.606      0.1688    
   1     9   1     0     4     4  0.859      0.859      0.2531    
   1    10   1     0     3     3  1.00       1.00       0.1406    
                          
 THE ANALYSIS HAS COMPLETED SUCCESSFULLY
