*Heading
** Job name: Job-1 Model name: Model-1
** Generated by: Abaqus/CAE Learning Edition 2025
*Preprint, echo=NO, model=NO, history=NO, contact=NO
**
** PARTS
**
*Part, name=Part-1
*Node
      1,        -100.,           0.
      2,         -95.,           0.
      3,         -90.,           0.
      4,         -85.,           0.
      5,         -80.,           0.
      6,         -75.,           0.
      7,         -70.,           0.
      8,         -65.,           0.
      9,         -60.,           0.
     10,         -55.,           0.
     11,         -50.,           0.
     12,         -45.,           0.
     13,         -40.,           0.
     14,         -35.,           0.
     15,         -30.,           0.
     16,         -25.,           0.
     17,         -20.,           0.
     18,         -15.,           0.
     19,         -10.,           0.
     20,          -5.,           0.
** ... 61 like lines cut
*Element, type=B22
 1,  1, 42,  2
 2,  2, 43,  3
 3,  3, 44,  4
 4,  4, 45,  5
 5,  5, 46,  6
 6,  6, 47,  7
 7,  7, 48,  8
 8,  8, 49,  9
 9,  9, 50, 10
10, 10, 51, 11
11, 11, 52, 12
12, 12, 53, 13
13, 13, 54, 14
14, 14, 55, 15
15, 15, 56, 16
16, 16, 57, 17
17, 17, 58, 18
18, 18, 59, 19
19, 19, 60, 20
20, 20, 61, 21
** ... 20 like lines cut
*Nset, nset=Set-1, generate
  1,  81,   1
*Elset, elset=Set-1, generate
  1,  40,   1
*Nset, nset=Set-2, generate
  1,  81,   1
*Elset, elset=Set-2, generate
  1,  40,   1
*Nset, nset=Set-3, generate
  1,  81,   1
*Elset, elset=Set-3, generate
  1,  40,   1
** Section: Section-1  Profile: Profile-1
*Beam Section, elset=Set-1, material=Material-1, temperature=GRADIENTS, section=RECT
10., 5.
0.,0.,-1.
*End Part
**  
**
** ASSEMBLY
**
*Assembly, name=Assembly
**  
*Instance, name=Part-1-1, part=Part-1
*End Instance
**  
*Nset, nset=Set-1, instance=Part-1-1
 1,
*Nset, nset=Set-2, instance=Part-1-1
 41,
*End Assembly
** 
** MATERIALS
** 
*Material, name=Material-1
*Elastic
210000., 0.3
** 
** BOUNDARY CONDITIONS
** 
** Name: BC-1 Type: Symmetry/Antisymmetry/Encastre
*Boundary
Set-1, ENCASTRE
** ----------------------------------------------------------------
** 
** STEP: Step-1
** 
*Step, name=Step-1, nlgeom=YES
*Static
0.05, 1., 1e-05, 1.
** 
** LOADS
** 
** Name: Load-1   Type: Concentrated force
*Cload
Set-2, 1, 3418.
Set-2, 2, -3418.
** 
** OUTPUT REQUESTS
** 
*Restart, write, frequency=0
** 
** FIELD OUTPUT: F-Output-1
** 
*Output, field, variable=PRESELECT
** 
** HISTORY OUTPUT: H-Output-1
** 
*Output, history, variable=PRESELECT
*End Step
