 Abaqus/Standard Learning Edition 2025                  DATE 24-Apr-2026 TIME 18:03:56
 SUMMARY OF JOB INFORMATION:
 STEP  INC ATT SEVERE EQUIL TOTAL  TOTAL      STEP       INC OF       DOF    IF
               DISCON ITERS ITERS  TIME/    TIME/LPF    TIME/LPF    MONITOR RIKS
               ITERS               FREQ
   1     1   1     0     2     2  0.000100   0.000100   0.0001000 
   1     2   1     0     2     2  0.000200   0.000200   0.0001000 
   1     3   1     0     2     2  0.000350   0.000350   0.0001500 
   1     4   1     0     2     2  0.000575   0.000575   0.0002250 
   1     5   1     0     3     3  0.000913   0.000913   0.0003375 
   1     6   1     0     3     3  0.00142    0.00142    0.0005062 
   1     7   1     0     3     3  0.00218    0.00218    0.0007594 
   1     8   1     0     3     3  0.00332    0.00332    0.001139  
   1     9   1     0     3     3  0.00503    0.00503    0.001709  
   1    10   1     0     3     3  0.00759    0.00759    0.002563  
   1    11   1     0     3     3  0.0114     0.0114     0.003844  
   1    12   1     0     3     3  0.0172     0.0172     0.005767  
   1    13   1     0     4     4  0.0258     0.0258     0.008650  
   1    14   1U    0     4     4  0.0258     0.0258     0.01000   
   1    14   2U    0     4     4  0.0258     0.0258     0.002500  
   1    14   3     0     3     3  0.0265     0.0265     0.0006250 
   1    15   1     0     3     3  0.0274     0.0274     0.0009375 
   1    16   1     0     3     3  0.0288     0.0288     0.001406  
   1    17   1     0     3     3  0.0309     0.0309     0.002109  
   1    18   1     0     3     3  0.0341     0.0341     0.003164  
   1    19   1     0     3     3  0.0388     0.0388     0.004746  
   1    20   1     0     3     3  0.0460     0.0460     0.007119  
   1    21   1     0     4     4  0.0560     0.0560     0.01000   
   1    22   1     0     4     4  0.0660     0.0660     0.01000   
   1    23   1     0     4     4  0.0760     0.0760     0.01000   
   1    24   1     0     4     4  0.0860     0.0860     0.01000   
   1    25   1     0     4     4  0.0960     0.0960     0.01000   
   1    26   1U    0     4     4  0.0960     0.0960     0.01000   
   1    26   2     0     5     5  0.0985     0.0985     0.002500  
   1    27   1U    0     4     4  0.0985     0.0985     0.002500  
   1    27   2U    0     4     4  0.0985     0.0985     0.0006250 
   1    27   3     0     2     2  0.0986     0.0986     0.0001563 
   1    28   1     0     3     3  0.0988     0.0988     0.0001563 
   1    29   1     0     3     3  0.0990     0.0990     0.0002344 
   1    30   1     0     3     3  0.0994     0.0994     0.0003516 
   1    31   1     0     3     3  0.0999     0.0999     0.0005273 
   1    32   1     0     3     3  0.101      0.101      0.0007910 
   1    33   1     0     3     3  0.102      0.102      0.001187  
   1    34   1     0     3     3  0.104      0.104      0.001780  
   1    35   1     0     3     3  0.106      0.106      0.002670  
   1    36   1     0     3     3  0.110      0.110      0.004005  
   1    37   1     0     3     3  0.116      0.116      0.006007  
   1    38   1     0     4     4  0.125      0.125      0.009010  
   1    39   1     0     7     7  0.135      0.135      0.01000   
   1    40   1U    0     4     4  0.135      0.135      0.01000   
   1    40   2U    0     4     4  0.135      0.135      0.002500  
   1    40   3     0     3     3  0.136      0.136      0.0006250 
   1    41   1     0     3     3  0.137      0.137      0.0006250 
   1    42   1     0     3     3  0.138      0.138      0.0009375 
   1    43   1     0     3     3  0.139      0.139      0.001406  
   1    44   1     0     3     3  0.141      0.141      0.002109  
   1    45   1     0     3     3  0.144      0.144      0.003164  
   1    46   1     0     4     4  0.149      0.149      0.004746  
   1    47   1U    0     4     4  0.149      0.149      0.007119  
   1    47   2U    0     4     4  0.149      0.149      0.001780  
   1    47   3     0     3     3  0.149      0.149      0.0004449 
   1    48   1     0     3     3  0.150      0.150      0.0006674 
   1    49   1     0     3     3  0.151      0.151      0.001001  
   1    50   1     0     3     3  0.153      0.153      0.001502  
   1    51   1     0     3     3  0.155      0.155      0.002253  
   1    52   1     0     3     3  0.158      0.158      0.003379  
   1    53   1     0     6     6  0.163      0.163      0.005068  
   1    54   1U    0     4     4  0.163      0.163      0.005068  
   1    54   2U    0     4     4  0.163      0.163      0.001267  
   1    54   3     0     3     3  0.164      0.164      0.0003168 
   1    55   1     0     3     3  0.164      0.164      0.0003168 
   1    56   1     0     3     3  0.164      0.164      0.0004751 
   1    57   1     0     3     3  0.165      0.165      0.0007127 
   1    58   1     0     3     3  0.166      0.166      0.001069  
   1    59   1U    0     4     4  0.166      0.166      0.001604  
   1    59   2     0     5     5  0.167      0.167      0.0004009 
   1    60   1U    0     4     4  0.167      0.167      0.0004009 
   1    60   2U    0     4     4  0.167      0.167      0.0001002 
   1    60   3     0     2     2  0.167      0.167      2.506e-05 
   1    61   1     0     2     2  0.167      0.167      2.506e-05 
   1    62   1     0     2     2  0.167      0.167      3.758e-05 
   1    63   1     0     2     2  0.167      0.167      5.638e-05 
   1    64   1     0     2     2  0.167      0.167      8.457e-05 
   1    65   1     0     2     2  0.167      0.167      0.0001268 
   1    66   1     0     3     3  0.167      0.167      0.0001903 
   1    67   1     0     3     3  0.167      0.167      0.0002854 
   1    68   1     0     3     3  0.168      0.168      0.0004281 
   1    69   1     0     3     3  0.168      0.168      0.0006422 
   1    70   1     0     3     3  0.169      0.169      0.0009633 
   1    71   1     0     3     3  0.171      0.171      0.001445  
   1    72   1U    0     4     4  0.171      0.171      0.002167  
   1    72   2     0     5     5  0.171      0.171      0.0005418 
   1    73   1U    0     4     4  0.171      0.171      0.0005418 
   1    73   2U    0     4     4  0.171      0.171      0.0001355 
   1    73   3     0     2     2  0.171      0.171      3.386e-05 
   1    74   1     0     2     2  0.171      0.171      3.386e-05 
   1    75   1     0     2     2  0.172      0.172      5.080e-05 
   1    76   1     0     2     2  0.172      0.172      7.620e-05 
   1    77   1     0     2     2  0.172      0.172      0.0001143 
   1    78   1     0     2     2  0.172      0.172      0.0001714 
   1    79   1     0     3     3  0.172      0.172      0.0002572 
   1    80   1     0     3     3  0.173      0.173      0.0003857 
   1    81   1     0     3     3  0.173      0.173      0.0005786 
   1    82   1     0     3     3  0.174      0.174      0.0008679 
   1    83   1     0     3     3  0.175      0.175      0.001302  
   1    84   1     0     3     3  0.177      0.177      0.001953  
   1    85   1     0     3     3  0.180      0.180      0.002929  
   1    86   1     0     4     4  0.185      0.185      0.004394  
   1    87   1U    0     4     4  0.185      0.185      0.006591  
   1    87   2     0     5     5  0.186      0.186      0.001648  
   1    88   1U    0     4     4  0.186      0.186      0.001648  
   1    88   2U    0     4     4  0.186      0.186      0.0004119 
   1    88   3     0     2     2  0.186      0.186      0.0001030 
   1    89   1     0     2     2  0.186      0.186      0.0001030 
   1    90   1     0     2     2  0.187      0.187      0.0001545 
   1    91   1     0     3     3  0.187      0.187      0.0002317 
   1    92   1     0     3     3  0.187      0.187      0.0003476 
   1    93   1     0     3     3  0.188      0.188      0.0005213 
   1    94   1     0     3     3  0.188      0.188      0.0007820 
   1    95   1     0     3     3  0.190      0.190      0.001173  
   1    96   1     0     3     3  0.191      0.191      0.001760  
   1    97   1     0     3     3  0.194      0.194      0.002639  
   1    98   1     0     3     3  0.198      0.198      0.003959  
   1    99   1     0     3     3  0.204      0.204      0.005938  
   1   100   1     0     4     4  0.213      0.213      0.008907  
   1   101   1U    0     4     4  0.213      0.213      0.01000   
   1   101   2U    0     4     4  0.213      0.213      0.002500  
   1   101   3     0     3     3  0.213      0.213      0.0006250 
   1   102   1     0     3     3  0.214      0.214      0.0009375 
   1   103   1     0     3     3  0.216      0.216      0.001406  
   1   104   1     0     3     3  0.218      0.218      0.002109  
   1   105   1     0     3     3  0.221      0.221      0.003164  
   1   106   1     0     3     3  0.226      0.226      0.004746  
   1   107   1     0     4     4  0.233      0.233      0.007119  
   1   108   1     0     6     6  0.243      0.243      0.01000   
   1   109   1U    0     4     4  0.243      0.243      0.01000   
   1   109   2U    0     4     4  0.243      0.243      0.002500  
   1   109   3     0     3     3  0.244      0.244      0.0006250 
   1   110   1     0     3     3  0.244      0.244      0.0006250 
   1   111   1     0     3     3  0.245      0.245      0.0009375 
   1   112   1     0     3     3  0.247      0.247      0.001406  
   1   113   1     0     3     3  0.249      0.249      0.002109  
   1   114   1     0     3     3  0.252      0.252      0.003164  
   1   115   1     0     3     3  0.257      0.257      0.004746  
   1   116   1     0     3     3  0.264      0.264      0.007119  
   1   117   1     0     4     4  0.274      0.274      0.01000   
   1   118   1U    0     4     4  0.274      0.274      0.01000   
   1   118   2     0     5     5  0.276      0.276      0.002500  
   1   119   1U    0     4     4  0.276      0.276      0.002500  
   1   119   2U    0     4     4  0.276      0.276      0.0006250 
   1   119   3     0     2     2  0.276      0.276      0.0001563 
   1   120   1     0     2     2  0.276      0.276      0.0001563 
   1   121   1     0     2     2  0.277      0.277      0.0002344 
   1   122   1     0     3     3  0.277      0.277      0.0003516 
   1   123   1     0     3     3  0.278      0.278      0.0005273 
   1   124   1     0     3     3  0.278      0.278      0.0007910 
   1   125   1     0     3     3  0.280      0.280      0.001187  
   1   126   1     0     3     3  0.281      0.281      0.001780  
   1   127   1     0     3     3  0.284      0.284      0.002670  
   1   128   1     0     3     3  0.288      0.288      0.004005  
   1   129   1     0     3     3  0.294      0.294      0.006007  
   1   130   1     0     4     4  0.303      0.303      0.009010  
   1   131   1     0     5     5  0.313      0.313      0.01000   
   1   132   1U    0     4     4  0.313      0.313      0.01000   
   1   132   2U    0     4     4  0.313      0.313      0.002500  
   1   132   3     0     3     3  0.314      0.314      0.0006250 
   1   133   1     0     3     3  0.314      0.314      0.0006250 
   1   134   1     0     3     3  0.315      0.315      0.0009375 
   1   135   1     0     3     3  0.317      0.317      0.001406  
   1   136   1     0     3     3  0.319      0.319      0.002109  
   1   137   1     0     3     3  0.322      0.322      0.003164  
   1   138   1     0     3     3  0.327      0.327      0.004746  
   1   139   1     0     3     3  0.334      0.334      0.007119  
   1   140   1     0     4     4  0.344      0.344      0.01000   
   1   141   1     0     5     5  0.354      0.354      0.01000   
   1   142   1U    0     4     4  0.354      0.354      0.01000   
   1   142   2U    0     4     4  0.354      0.354      0.002500  
   1   142   3     0     3     3  0.354      0.354      0.0006250 
   1   143   1     0     3     3  0.355      0.355      0.0006250 
   1   144   1     0     3     3  0.356      0.356      0.0009375 
   1   145   1     0     3     3  0.357      0.357      0.001406  
   1   146   1     0     3     3  0.359      0.359      0.002109  
   1   147   1     0     3     3  0.363      0.363      0.003164  
   1   148   1     0     3     3  0.367      0.367      0.004746  
   1   149   1     0     4     4  0.374      0.374      0.007119  
   1   150   1     0     4     4  0.384      0.384      0.01000   
   1   151   1     0     4     4  0.394      0.394      0.01000   
   1   152   1     0     4     4  0.404      0.404      0.01000   
   1   153   1     0     4     4  0.414      0.414      0.01000   
   1   154   1U    0     4     4  0.414      0.414      0.01000   
   1   154   2     0     4     4  0.417      0.417      0.002500  
   1   155   1U    0     4     4  0.417      0.417      0.003750  
   1   155   2U    0     4     4  0.417      0.417      0.0009375 
   1   155   3     0     2     2  0.417      0.417      0.0002344 
   1   156   1     0     3     3  0.418      0.418      0.0003516 
   1   157   1     0     3     3  0.418      0.418      0.0005273 
   1   158   1     0     3     3  0.419      0.419      0.0007910 
   1   159   1     0     3     3  0.420      0.420      0.001187  
   1   160   1     0     3     3  0.422      0.422      0.001780  
   1   161   1     0     3     3  0.425      0.425      0.002670  
   1   162   1     0     4     4  0.429      0.429      0.004005  
   1   163   1U    0     4     4  0.429      0.429      0.006007  
   1   163   2U    0     4     4  0.429      0.429      0.001502  
   1   163   3     0     3     3  0.429      0.429      0.0003754 
   1   164   1     0     3     3  0.429      0.429      0.0005631 
   1   165   1     0     3     3  0.430      0.430      0.0008447 
   1   166   1     0     3     3  0.432      0.432      0.001267  
   1   167   1     0     3     3  0.433      0.433      0.001901  
   1   168   1     0     3     3  0.436      0.436      0.002851  
   1   169   1     0     3     3  0.441      0.441      0.004276  
   1   170   1     0     3     3  0.447      0.447      0.006414  
   1   171   1     0     4     4  0.457      0.457      0.009622  
   1   172   1U    0     4     4  0.457      0.457      0.01000   
   1   172   2U    0     4     4  0.457      0.457      0.002500  
   1   172   3     0     3     3  0.457      0.457      0.0006250 
   1   173   1U    0     4     4  0.457      0.457      0.0009375 
   1   173   2U    0     4     4  0.457      0.457      0.0002344 
   1   173   3     0     2     2  0.457      0.457      5.859e-05 
   1   174   1     0     2     2  0.457      0.457      8.789e-05 
   1   175   1     0     2     2  0.458      0.458      0.0001318 
   1   176   1     0     3     3  0.458      0.458      0.0001978 
   1   177   1     0     3     3  0.458      0.458      0.0002966 
   1   178   1     0     3     3  0.458      0.458      0.0004449 
   1   179   1     0     3     3  0.459      0.459      0.0006674 
   1   180   1     0     3     3  0.460      0.460      0.001001  
   1   181   1     0     3     3  0.462      0.462      0.001502  
   1   182   1     0     8     8  0.464      0.464      0.002253  
   1   183   1U    0     4     4  0.464      0.464      0.002253  
   1   183   2U    0     4     4  0.464      0.464      0.0005631 
   1   183   3     0     2     2  0.464      0.464      0.0001408 
   1   184   1     0     2     2  0.464      0.464      0.0001408 
   1   185   1     0     3     3  0.464      0.464      0.0002112 
   1   186   1     0     3     3  0.465      0.465      0.0003168 
   1   187   1     0     3     3  0.465      0.465      0.0004751 
   1   188   1     0     3     3  0.466      0.466      0.0007127 
   1   189   1     0     3     3  0.467      0.467      0.001069  
   1   190   1     0     3     3  0.469      0.469      0.001604  
   1   191   1     0     3     3  0.471      0.471      0.002405  
   1   192   1     0     3     3  0.475      0.475      0.003608  
   1   193   1     0     3     3  0.480      0.480      0.005412  
   1   194   1     0     4     4  0.488      0.488      0.008118  
   1   195   1U    0     4     4  0.488      0.488      0.01000   
   1   195   2U    0     4     4  0.488      0.488      0.002500  
   1   195   3     0     3     3  0.489      0.489      0.0006250 
   1   196   1     0     3     3  0.490      0.490      0.0009375 
   1   197   1     0     3     3  0.491      0.491      0.001406  
   1   198   1     0     3     3  0.493      0.493      0.002109  
   1   199   1     0     3     3  0.496      0.496      0.003164  
   1   200   1     0     3     3  0.501      0.501      0.004746  
   1   201   1     0     4     4  0.508      0.508      0.007119  
   1   202   1U    0     4     4  0.508      0.508      0.01000   
   1   202   2U    0     4     4  0.508      0.508      0.002500  
   1   202   3     0     3     3  0.509      0.509      0.0006250 
   1   203   1     0     3     3  0.510      0.510      0.0009375 
   1   204   1     0     3     3  0.511      0.511      0.001406  
   1   205   1     0     3     3  0.513      0.513      0.002109  
   1   206   1     0     3     3  0.516      0.516      0.003164  
   1   207   1     0     3     3  0.521      0.521      0.004746  
   1   208   1     0     3     3  0.528      0.528      0.007119  
   1   209   1     0     4     4  0.538      0.538      0.01000   
   1   210   1U    0     4     4  0.538      0.538      0.01000   
   1   210   2U    0     4     4  0.538      0.538      0.002500  
   1   210   3     0     3     3  0.539      0.539      0.0006250 
   1   211   1     0     3     3  0.540      0.540      0.0009375 
   1   212   1     0     3     3  0.541      0.541      0.001406  
   1   213   1     0     3     3  0.543      0.543      0.002109  
   1   214   1     0     3     3  0.547      0.547      0.003164  
   1   215   1     0     4     4  0.551      0.551      0.004746  
   1   216   1U    0     4     4  0.551      0.551      0.007119  
   1   216   2U    0     4     4  0.551      0.551      0.001780  
   1   216   3     0     3     3  0.552      0.552      0.0004449 
   1   217   1     0     3     3  0.552      0.552      0.0006674 
   1   218   1     0     3     3  0.553      0.553      0.001001  
   1   219   1     0     3     3  0.555      0.555      0.001502  
   1   220   1     0     3     3  0.557      0.557      0.002253  
   1   221   1     0     3     3  0.561      0.561      0.003379  
   1   222   1     0     3     3  0.566      0.566      0.005068  
   1   223   1     0     3     3  0.573      0.573      0.007602  
   1   224   1     0     4     4  0.583      0.583      0.01000   
   1   225   1     0     6     6  0.593      0.593      0.01000   
   1   226   1U    0     4     4  0.593      0.593      0.01000   
   1   226   2U    0     4     4  0.593      0.593      0.002500  
   1   226   3     0     3     3  0.594      0.594      0.0006250 
   1   227   1     0     3     3  0.595      0.595      0.0006250 
   1   228   1     0     3     3  0.595      0.595      0.0009375 
   1   229   1     0     3     3  0.597      0.597      0.001406  
   1   230   1     0     3     3  0.599      0.599      0.002109  
   1   231   1     0     3     3  0.602      0.602      0.003164  
   1   232   1     0     4     4  0.607      0.607      0.004746  
   1   233   1     0     3     3  0.614      0.614      0.007119  
   1   234   1     0     4     4  0.624      0.624      0.01000   
   1   235   1U    0     4     4  0.624      0.624      0.01000   
   1   235   2U    0     4     4  0.624      0.624      0.002500  
   1   235   3     0     3     3  0.625      0.625      0.0006250 
   1   236   1     0     3     3  0.626      0.626      0.0009375 
   1   237   1     0     3     3  0.627      0.627      0.001406  
   1   238   1     0     3     3  0.629      0.629      0.002109  
   1   239   1     0     3     3  0.632      0.632      0.003164  
   1   240   1     0     3     3  0.637      0.637      0.004746  
   1   241   1     0     4     4  0.644      0.644      0.007119  
   1   242   1U    0     4     4  0.644      0.644      0.01000   
   1   242   2U    0     4     4  0.644      0.644      0.002500  
   1   242   3     0     3     3  0.645      0.645      0.0006250 
   1   243   1     0     3     3  0.646      0.646      0.0009375 
   1   244   1     0     3     3  0.647      0.647      0.001406  
   1   245   1     0     3     3  0.649      0.649      0.002109  
   1   246   1     0     3     3  0.652      0.652      0.003164  
   1   247   1     0     3     3  0.657      0.657      0.004746  
   1   248   1     0     4     4  0.664      0.664      0.007119  
   1   249   1U    0     4     4  0.664      0.664      0.01000   
   1   249   2U    0     4     4  0.664      0.664      0.002500  
   1   249   3     0     3     3  0.665      0.665      0.0006250 
   1   250   1     0     3     3  0.666      0.666      0.0009375 
   1   251   1     0     3     3  0.667      0.667      0.001406  
   1   252   1U    0     4     4  0.667      0.667      0.002109  
   1   252   2     0     5     5  0.668      0.668      0.0005273 
   1   253   1U    0     4     4  0.668      0.668      0.0005273 
   1   253   2U    0     4     4  0.668      0.668      0.0001318 
   1   253   3     0     2     2  0.668      0.668      3.296e-05 
   1   254   1     0     2     2  0.668      0.668      3.296e-05 
   1   255   1     0     2     2  0.668      0.668      4.944e-05 
   1   256   1     0     2     2  0.668      0.668      7.416e-05 
   1   257   1     0     2     2  0.668      0.668      0.0001112 
   1   258   1     0     2     2  0.668      0.668      0.0001669 
   1   259   1     0     3     3  0.668      0.668      0.0002503 
   1   260   1     0     3     3  0.669      0.669      0.0003754 
   1   261   1     0     3     3  0.669      0.669      0.0005631 
   1   262   1U    0     4     4  0.669      0.669      0.0008447 
   1   262   2U    0     4     4  0.669      0.669      0.0002112 
   1   262   3     0     2     2  0.669      0.669      5.279e-05 
   1   263   1     0     2     2  0.669      0.669      7.919e-05 
   1   264   1     0     2     2  0.670      0.670      0.0001188 
   1   265   1     0     3     3  0.670      0.670      0.0001782 
   1   266   1     0     3     3  0.670      0.670      0.0002673 
   1   267   1     0     3     3  0.670      0.670      0.0004009 
   1   268   1     0     3     3  0.671      0.671      0.0006014 
   1   269   1     0     3     3  0.672      0.672      0.0009020 
   1   270   1     0     3     3  0.673      0.673      0.001353  
   1   271   1     0     3     3  0.675      0.675      0.002030  
   1   272   1     0     3     3  0.678      0.678      0.003044  
   1   273   1     0     3     3  0.683      0.683      0.004567  
   1   274   1     0     4     4  0.690      0.690      0.006850  
   1   275   1U    0     4     4  0.690      0.690      0.01000   
   1   275   2U    0     4     4  0.690      0.690      0.002500  
   1   275   3     0     3     3  0.690      0.690      0.0006250 
   1   276   1U    0     4     4  0.690      0.690      0.0009375 
   1   276   2     0     3     3  0.691      0.691      0.0002344 
   1   277   1     0     4     4  0.691      0.691      0.0003516 
   1   278   1U    0     4     4  0.691      0.691      0.0005273 
   1   278   2U    0     4     4  0.691      0.691      0.0001318 
   1   278   3     0     2     2  0.691      0.691      3.296e-05 
   1   279   1     0     2     2  0.691      0.691      4.944e-05 
   1   280   1     0     2     2  0.691      0.691      7.416e-05 
   1   281   1     0     2     2  0.691      0.691      0.0001112 
   1   282   1     0     2     2  0.691      0.691      0.0001669 
   1   283   1     0     3     3  0.692      0.692      0.0002503 
   1   284   1     0     3     3  0.692      0.692      0.0003754 
   1   285   1     0     3     3  0.693      0.693      0.0005631 
   1   286   1     0     3     3  0.693      0.693      0.0008447 
   1   287   1     0     3     3  0.695      0.695      0.001267  
   1   288   1     0     3     3  0.697      0.697      0.001901  
   1   289   1     0     3     3  0.699      0.699      0.002851  
   1   290   1     0     4     4  0.704      0.704      0.004276  
   1   291   1U    0     4     4  0.704      0.704      0.006414  
   1   291   2     0     5     5  0.705      0.705      0.001604  
   1   292   1U    0     4     4  0.705      0.705      0.001604  
   1   292   2U    0     4     4  0.705      0.705      0.0004009 
   1   292   3     0     2     2  0.705      0.705      0.0001002 
   1   293   1     0     2     2  0.706      0.706      0.0001002 
   1   294   1     0     2     2  0.706      0.706      0.0001503 
   1   295   1     0     3     3  0.706      0.706      0.0002255 
   1   296   1     0     3     3  0.706      0.706      0.0003383 
   1   297   1     0     3     3  0.707      0.707      0.0005074 
   1   298   1     0     3     3  0.708      0.708      0.0007611 
   1   299   1     0     3     3  0.709      0.709      0.001142  
   1   300   1     0     3     3  0.710      0.710      0.001712  
   1   301   1     0     3     3  0.713      0.713      0.002569  
   1   302   1     0     4     4  0.717      0.717      0.003853  
   1   303   1U    0     4     4  0.717      0.717      0.005780  
   1   303   2U    0     4     4  0.717      0.717      0.001445  
   1   303   3     0     3     3  0.717      0.717      0.0003612 
   1   304   1     0     3     3  0.718      0.718      0.0005418 
   1   305   1     0     3     3  0.719      0.719      0.0008127 
   1   306   1     0     3     3  0.720      0.720      0.001219  
   1   307   1     0     3     3  0.722      0.722      0.001829  
   1   308   1     0     3     3  0.724      0.724      0.002743  
   1   309   1     0     3     3  0.728      0.728      0.004115  
   1   310   1     0     4     4  0.735      0.735      0.006172  
   1   311   1U    0     4     4  0.735      0.735      0.009258  
   1   311   2U    0     4     4  0.735      0.735      0.002314  
   1   311   3     0     3     3  0.735      0.735      0.0005786 
   1   312   1     0     3     3  0.736      0.736      0.0008679 
   1   313   1     0     3     3  0.737      0.737      0.001302  
   1   314   1     0     3     3  0.739      0.739      0.001953  
   1   315   1     0     3     3  0.742      0.742      0.002929  
   1   316   1     0     3     3  0.747      0.747      0.004394  
   1   317   1     0     3     3  0.753      0.753      0.006591  
   1   318   1     0     4     4  0.763      0.763      0.009886  
   1   319   1     0     4     4  0.773      0.773      0.01000   
   1   320   1     0     4     4  0.783      0.783      0.01000   
   1   321   1U    0     4     4  0.783      0.783      0.01000   
   1   321   2U    0     4     4  0.783      0.783      0.002500  
   1   321   3     0     3     3  0.784      0.784      0.0006250 
   1   322   1     0     3     3  0.785      0.785      0.0009375 
   1   323   1     0     3     3  0.786      0.786      0.001406  
   1   324   1     0     3     3  0.788      0.788      0.002109  
   1   325   1     0     3     3  0.791      0.791      0.003164  
   1   326   1     0     3     3  0.796      0.796      0.004746  
   1   327   1     0     4     4  0.803      0.803      0.007119  
   1   328   1U    0     4     4  0.803      0.803      0.01000   
   1   328   2U    0     4     4  0.803      0.803      0.002500  
   1   328   3     0     3     3  0.804      0.804      0.0006250 
   1   329   1     0     3     3  0.805      0.805      0.0009375 
   1   330   1     0     8     8  0.806      0.806      0.001406  
   1   331   1U    0     4     4  0.806      0.806      0.001406  
   1   331   2U    0     4     4  0.806      0.806      0.0003516 
   1   331   3     0     2     2  0.806      0.806      8.789e-05 
   1   332   1     0     2     2  0.806      0.806      8.789e-05 
   1   333   1     0     2     2  0.807      0.807      0.0001318 
   1   334   1     0     3     3  0.807      0.807      0.0001978 
   1   335   1     0     3     3  0.807      0.807      0.0002966 
   1   336   1     0     3     3  0.807      0.807      0.0004449 
   1   337   1     0     3     3  0.808      0.808      0.0006674 
   1   338   1     0     3     3  0.809      0.809      0.001001  
   1   339   1     0     3     3  0.811      0.811      0.001502  
   1   340   1     0     3     3  0.813      0.813      0.002253  
   1   341   1     0     3     3  0.816      0.816      0.003379  
   1   342   1     0     4     4  0.821      0.821      0.005068  
   1   343   1U    0    11    11  0.821      0.821      0.007602  
   1   343   2     0     5     5  0.825      0.825      0.003801  
   1   344   1U    0     4     4  0.825      0.825      0.003801  
   1   344   2U    0     4     4  0.825      0.825      0.0009503 
   1   344   3     0     3     3  0.825      0.825      0.0002376 
   1   345   1     0     3     3  0.826      0.826      0.0002376 
   1   346   1     0     3     3  0.826      0.826      0.0003564 
   1   347   1     0     3     3  0.826      0.826      0.0005345 
   1   348   1     0     3     3  0.827      0.827      0.0008018 
   1   349   1     0     3     3  0.828      0.828      0.001203  
   1   350   1     0     3     3  0.830      0.830      0.001804  
   1   351   1     0     3     3  0.833      0.833      0.002706  
   1   352   1     0     3     3  0.837      0.837      0.004059  
   1   353   1     0     4     4  0.843      0.843      0.006089  
   1   354   1     0     4     4  0.852      0.852      0.009133  
   1   355   1U    0     4     4  0.852      0.852      0.01000   
   1   355   2U    0     4     4  0.852      0.852      0.002500  
   1   355   3     0     3     3  0.853      0.853      0.0006250 
   1   356   1     0     3     3  0.854      0.854      0.0009375 
   1   357   1     0     3     3  0.855      0.855      0.001406  
   1   358   1     0     3     3  0.857      0.857      0.002109  
   1   359   1     0     3     3  0.861      0.861      0.003164  
   1   360   1     0     3     3  0.865      0.865      0.004746  
   1   361   1     0     4     4  0.872      0.872      0.007119  
   1   362   1U    0     4     4  0.872      0.872      0.01000   
   1   362   2     0     4     4  0.875      0.875      0.002500  
   1   363   1U    0     4     4  0.875      0.875      0.003750  
   1   363   2U    0     4     4  0.875      0.875      0.0009375 
   1   363   3     0     2     2  0.875      0.875      0.0002344 
   1   364   1     0     3     3  0.875      0.875      0.0003516 
   1   365   1     0     3     3  0.876      0.876      0.0005273 
   1   366   1     0     3     3  0.877      0.877      0.0007910 
   1   367   1     0     3     3  0.878      0.878      0.001187  
   1   368   1     0     3     3  0.880      0.880      0.001780  
   1   369   1     0     3     3  0.882      0.882      0.002670  
   1   370   1     0     4     4  0.886      0.886      0.004005  
   1   371   1U    0     4     4  0.886      0.886      0.006007  
   1   371   2U    0     4     4  0.886      0.886      0.001502  
   1   371   3     0     3     3  0.887      0.887      0.0003754 
   1   372   1     0     3     3  0.887      0.887      0.0005631 
   1   373   1     0     3     3  0.888      0.888      0.0008447 
   1   374   1     0     3     3  0.889      0.889      0.001267  
   1   375   1     0     3     3  0.891      0.891      0.001901  
   1   376   1     0     3     3  0.894      0.894      0.002851  
   1   377   1     0     4     4  0.899      0.899      0.004276  
   1   378   1U    0     4     4  0.899      0.899      0.006414  
   1   378   2     0     8     8  0.900      0.900      0.001604  
   1   379   1U    0     4     4  0.900      0.900      0.001604  
   1   379   2U    0     4     4  0.900      0.900      0.0004009 
   1   379   3     0     2     2  0.900      0.900      0.0001002 
   1   380   1     0     2     2  0.900      0.900      0.0001002 
   1   381   1     0     2     2  0.900      0.900      0.0001503 
   1   382   1     0     3     3  0.901      0.901      0.0002255 
   1   383   1     0     3     3  0.901      0.901      0.0003383 
   1   384   1     0     3     3  0.902      0.902      0.0005074 
   1   385   1     0     3     3  0.902      0.902      0.0007611 
   1   386   1     0     3     3  0.903      0.903      0.001142  
   1   387   1     0     3     3  0.905      0.905      0.001712  
   1   388   1     0     3     3  0.908      0.908      0.002569  
   1   389   1     0     3     3  0.912      0.912      0.003853  
   1   390   1     0     3     3  0.917      0.917      0.005780  
   1   391   1     0     4     4  0.926      0.926      0.008669  
   1   392   1U    0     4     4  0.926      0.926      0.01000   
   1   392   2     0    10    10  0.929      0.929      0.002500  
   1   393   1U    0     4     4  0.929      0.929      0.002500  
   1   393   2U    0     4     4  0.929      0.929      0.0006250 
   1   393   3     0     2     2  0.929      0.929      0.0001563 
   1   394   1     0     3     3  0.929      0.929      0.0001563 
   1   395   1     0     3     3  0.929      0.929      0.0002344 
   1   396   1     0     3     3  0.929      0.929      0.0003516 
   1   397   1     0     3     3  0.930      0.930      0.0005273 
   1   398   1     0     3     3  0.931      0.931      0.0007910 
   1   399   1     0     3     3  0.932      0.932      0.001187  
   1   400   1     0     3     3  0.934      0.934      0.001780  
   1   401   1     0     4     4  0.936      0.936      0.002670  
   1   402   1U    0     4     4  0.936      0.936      0.004005  
   1   402   2U    0     4     4  0.936      0.936      0.001001  
   1   402   3     0     3     3  0.937      0.937      0.0002503 
   1   403   1     0     3     3  0.937      0.937      0.0003754 
   1   404   1     0     3     3  0.938      0.938      0.0005631 
   1   405   1     0     3     3  0.938      0.938      0.0008447 
   1   406   1     0     3     3  0.940      0.940      0.001267  
   1   407   1     0     3     3  0.942      0.942      0.001901  
   1   408   1     0     3     3  0.944      0.944      0.002851  
   1   409   1     0     3     3  0.949      0.949      0.004276  
   1   410   1     0     4     4  0.955      0.955      0.006414  
   1   411   1U    0     4     4  0.955      0.955      0.009622  
   1   411   2U    0     4     4  0.955      0.955      0.002405  
   1   411   3     0     3     3  0.956      0.956      0.0006014 
   1   412   1     0     3     3  0.957      0.957      0.0009020 
   1   413   1     0     3     3  0.958      0.958      0.001353  
   1   414   1     0     3     3  0.960      0.960      0.002030  
   1   415   1     0     3     3  0.963      0.963      0.003044  
   1   416   1     0     3     3  0.968      0.968      0.004567  
   1   417   1     0     4     4  0.974      0.974      0.006850  
   1   418   1U    0     4     4  0.974      0.974      0.01000   
   1   418   2U    0     4     4  0.974      0.974      0.002500  
   1   418   3     0     3     3  0.975      0.975      0.0006250 
   1   419   1     0     3     3  0.976      0.976      0.0009375 
   1   420   1     0     3     3  0.977      0.977      0.001406  
   1   421   1     0     3     3  0.980      0.980      0.002109  
   1   422   1     0     3     3  0.983      0.983      0.003164  
   1   423   1     0     5     5  0.987      0.987      0.004746  
   1   424   1U    0     4     4  0.987      0.987      0.004746  
   1   424   2U    0     4     4  0.987      0.987      0.001187  
   1   424   3     0     3     3  0.988      0.988      0.0002966 
   1   425   1     0     3     3  0.988      0.988      0.0002966 
   1   426   1     0     3     3  0.988      0.988      0.0004449 
   1   427   1     0     3     3  0.989      0.989      0.0006674 
   1   428   1     0     3     3  0.990      0.990      0.001001  
   1   429   1     0     3     3  0.992      0.992      0.001502  
   1   430   1     0     3     3  0.994      0.994      0.002253  
   1   431   1     0     6     6  0.997      0.997      0.003379  
   1   432   1U    0     4     4  0.997      0.997      0.002704  
   1   432   2U    0     4     4  0.997      0.997      0.0006761 
   1   432   3     0     2     2  0.997      0.997      0.0001690 
   1   433   1     0     3     3  0.998      0.998      0.0001690 
   1   434   1     0     3     3  0.998      0.998      0.0002535 
   1   435   1     0     3     3  0.998      0.998      0.0003803 
   1   436   1     0     3     3  0.999      0.999      0.0005704 
   1   437   1     0     3     3  1.00       1.00       0.0008556 
   1   438   1     0     3     3  1.00       1.00       0.0003063 
   2     1   1     0     2     2  1.00       0.000100   0.0001000 
   2     2   1     0     2     2  1.00       0.000200   0.0001000 
   2     3   1     0     2     2  1.00       0.000350   0.0001500 
   2     4   1     0     3     3  1.00       0.000575   0.0002250 
   2     5   1     0     3     3  1.00       0.000913   0.0003375 
   2     6   1     0     3     3  1.00       0.00142    0.0005062 
   2     7   1     0     3     3  1.00       0.00218    0.0007594 
   2     8   1     0     3     3  1.00       0.00332    0.001139  
   2     9   1     0     3     3  1.01       0.00503    0.001709  
   2    10   1     0     3     3  1.01       0.00759    0.002563  
   2    11   1     0     3     3  1.01       0.0114     0.003844  
   2    12   1     0     4     4  1.02       0.0172     0.005767  
   2    13   1     0     4     4  1.03       0.0258     0.008650  
   2    14   1U    0     4     4  1.03       0.0258     0.01000   
   2    14   2     0     4     4  1.03       0.0283     0.002500  
   2    15   1U    0     4     4  1.03       0.0283     0.003750  
   2    15   2U    0     4     4  1.03       0.0283     0.0009375 
   2    15   3     0     3     3  1.03       0.0286     0.0002344 
   2    16   1     0     2     2  1.03       0.0289     0.0003516 
   2    17   1     0     3     3  1.03       0.0295     0.0005273 
   2    18   1     0     3     3  1.03       0.0303     0.0007910 
   2    19   1     0     3     3  1.03       0.0314     0.001187  
   2    20   1     0     3     3  1.03       0.0332     0.001780  
   2    21   1U    0     4     4  1.03       0.0332     0.002670  
   2    21   2     0     4     4  1.03       0.0339     0.0006674 
   2    22   1U    0     4     4  1.03       0.0339     0.001001  
   2    22   2U    0     4     4  1.03       0.0339     0.0002503 
   2    22   3     0     2     2  1.03       0.0339     6.257e-05 
   2    23   1     0     2     2  1.03       0.0340     9.386e-05 
   2    24   1     0     2     2  1.03       0.0342     0.0001408 
   2    25   1     0     3     3  1.03       0.0344     0.0002112 
   2    26   1     0     3     3  1.03       0.0347     0.0003168 
   2    27   1     0     3     3  1.04       0.0352     0.0004751 
   2    28   1     0     3     3  1.04       0.0359     0.0007127 
   2    29   1     0     3     3  1.04       0.0370     0.001069  
   2    30   1     0     3     3  1.04       0.0386     0.001604  
   2    31   1     0     3     3  1.04       0.0410     0.002405  
   2    32   1     0     3     3  1.04       0.0446     0.003608  
   2    33   1     0     3     3  1.05       0.0500     0.005412  
   2    34   1     0     4     4  1.06       0.0581     0.008118  
   2    35   1U    0     4     4  1.06       0.0581     0.01000   
   2    35   2U    0     4     4  1.06       0.0581     0.002500  
   2    35   3     0     3     3  1.06       0.0587     0.0006250 
   2    36   1     0     3     3  1.06       0.0597     0.0009375 
   2    37   1     0     3     3  1.06       0.0611     0.001406  
   2    38   1     0     3     3  1.06       0.0632     0.002109  
   2    39   1     0     3     3  1.07       0.0664     0.003164  
   2    40   1     0     3     3  1.07       0.0711     0.004746  
   2    41   1     0     3     3  1.08       0.0782     0.007119  
   2    42   1     0     4     4  1.09       0.0882     0.01000   
   2    43   1     0     7     7  1.10       0.0982     0.01000   
   2    44   1U    0     4     4  1.10       0.0982     0.01000   
   2    44   2U    0     4     4  1.10       0.0982     0.002500  
   2    44   3     0     3     3  1.10       0.0988     0.0006250 
   2    45   1     0     3     3  1.10       0.0995     0.0006250 
   2    46   1     0     3     3  1.10       0.100      0.0009375 
   2    47   1     0     3     3  1.10       0.102      0.001406  
   2    48   1     0     3     3  1.10       0.104      0.002109  
   2    49   1     0     3     3  1.11       0.107      0.003164  
   2    50   1     0     4     4  1.11       0.112      0.004746  
   2    51   1U    0     4     4  1.11       0.112      0.007119  
   2    51   2U    0    12    12  1.11       0.112      0.001780  
   2    51   3     0     6     6  1.11       0.113      0.0008899 
   2    52   1U    0     4     4  1.11       0.113      0.0008899 
   2    52   2U    0     4     4  1.11       0.113      0.0002225 
   2    52   3     0     2     2  1.11       0.113      5.562e-05 
   2    53   1     0     2     2  1.11       0.113      5.562e-05 
   2    54   1     0     2     2  1.11       0.113      8.343e-05 
   2    55   1     0     2     2  1.11       0.113      0.0001251 
   2    56   1     0     3     3  1.11       0.113      0.0001877 
   2    57   1     0     3     3  1.11       0.114      0.0002816 
   2    58   1     0     3     3  1.11       0.114      0.0004224 
   2    59   1     0     3     3  1.11       0.115      0.0006335 
   2    60   1     0     3     3  1.12       0.116      0.0009503 
   2    61   1     0     3     3  1.12       0.117      0.001425  
   2    62   1     0     3     3  1.12       0.119      0.002138  
   2    63   1     0     3     3  1.12       0.122      0.003207  
   2    64   1     0     3     3  1.13       0.127      0.004811  
   2    65   1     0     4     4  1.13       0.134      0.007216  
   2    66   1U    0     4     4  1.13       0.134      0.01000   
   2    66   2     0     5     5  1.14       0.137      0.002500  
   2    67   1U    0     4     4  1.14       0.137      0.002500  
   2    67   2U    0     4     4  1.14       0.137      0.0006250 
   2    67   3     0     2     2  1.14       0.137      0.0001563 
   2    68   1     0     3     3  1.14       0.137      0.0001563 
   2    69   1     0     3     3  1.14       0.137      0.0002344 
   2    70   1     0     3     3  1.14       0.138      0.0003516 
   2    71   1     0     3     3  1.14       0.138      0.0005273 
   2    72   1     0     3     3  1.14       0.139      0.0007910 
   2    73   1     0     3     3  1.14       0.140      0.001187  
   2    74   1     0     3     3  1.14       0.142      0.001780  
   2    75   1     0     3     3  1.14       0.145      0.002670  
   2    76   1     0     4     4  1.15       0.149      0.004005  
   2    77   1U    0     4     4  1.15       0.149      0.006007  
   2    77   2U    0     4     4  1.15       0.149      0.001502  
   2    77   3     0     3     3  1.15       0.149      0.0003754 
   2    78   1     0     3     3  1.15       0.150      0.0005631 
   2    79   1     0     3     3  1.15       0.150      0.0008447 
   2    80   1     0     3     3  1.15       0.152      0.001267  
   2    81   1     0     3     3  1.15       0.154      0.001901  
   2    82   1     0     3     3  1.16       0.156      0.002851  
   2    83   1     0     3     3  1.16       0.161      0.004276  
   2    84   1     0     3     3  1.17       0.167      0.006414  
   2    85   1     0     5     5  1.18       0.177      0.009622  
   2    86   1U    0     4     4  1.18       0.177      0.009622  
   2    86   2U    0     4     4  1.18       0.177      0.002405  
   2    86   3     0     3     3  1.18       0.177      0.0006014 
   2    87   1     0     3     3  1.18       0.178      0.0006014 
   2    88   1     0     3     3  1.18       0.179      0.0009020 
   2    89   1     0     3     3  1.18       0.180      0.001353  
   2    90   1     0     4     4  1.18       0.182      0.002030  
   2    91   1U    0     4     4  1.18       0.182      0.003044  
   2    91   2     0     6     6  1.18       0.183      0.0007611 
   2    92   1U    0     4     4  1.18       0.183      0.0007611 
   2    92   2U    0     4     4  1.18       0.183      0.0001903 
   2    92   3     0     2     2  1.18       0.183      4.757e-05 
   2    93   1     0     2     2  1.18       0.183      4.757e-05 
   2    94   1     0     2     2  1.18       0.183      7.135e-05 
   2    95   1     0     2     2  1.18       0.183      0.0001070 
   2    96   1     0     2     2  1.18       0.183      0.0001605 
   2    97   1     0     3     3  1.18       0.184      0.0002408 
   2    98   1     0     3     3  1.18       0.184      0.0003612 
   2    99   1     0     3     3  1.18       0.185      0.0005418 
   2   100   1     0     3     3  1.19       0.185      0.0008127 
   2   101   1     0     3     3  1.19       0.187      0.001219  
   2   102   1     0     3     3  1.19       0.188      0.001829  
   2   103   1     0     3     3  1.19       0.191      0.002743  
   2   104   1     0     4     4  1.20       0.195      0.004115  
   2   105   1U    0     4     4  1.20       0.195      0.006172  
   2   105   2U    0     4     4  1.20       0.195      0.001543  
   2   105   3     0     3     3  1.20       0.196      0.0003857 
   2   106   1     0     3     3  1.20       0.196      0.0005786 
   2   107   1     0     3     3  1.20       0.197      0.0008679 
   2   108   1     0     3     3  1.20       0.198      0.001302  
   2   109   1     0     3     3  1.20       0.200      0.001953  
   2   110   1     0     3     3  1.20       0.203      0.002929  
   2   111   1U    0     4     4  1.20       0.203      0.004394  
   2   111   2U    0     7     7  1.20       0.203      0.001098  
   2   111   3     0     3     3  1.20       0.204      0.0002746 
   2   112   1     0     3     3  1.20       0.204      0.0004119 
   2   113   1     0     3     3  1.20       0.205      0.0006179 
   2   114   1     0     3     3  1.21       0.206      0.0009268 
   2   115   1     0     3     3  1.21       0.207      0.001390  
   2   116   1     0     3     3  1.21       0.209      0.002085  
   2   117   1     0     3     3  1.21       0.212      0.003128  
   2   118   1     0     4     4  1.22       0.217      0.004692  
   2   119   1U    0     4     4  1.22       0.217      0.007038  
   2   119   2     0     5     5  1.22       0.219      0.001760  
   2   120   1U    0     4     4  1.22       0.219      0.001760  
   2   120   2U    0     4     4  1.22       0.219      0.0004399 
   2   120   3     0     2     2  1.22       0.219      0.0001100 
   2   121   1     0     2     2  1.22       0.219      0.0001100 
   2   122   1     0     2     2  1.22       0.219      0.0001650 
   2   123   1     0     3     3  1.22       0.219      0.0002474 
   2   124   1     0     3     3  1.22       0.220      0.0003711 
   2   125   1     0     3     3  1.22       0.220      0.0005567 
   2   126   1     0     3     3  1.22       0.221      0.0008351 
   2   127   1     0     3     3  1.22       0.222      0.001253  
   2   128   1     0     3     3  1.22       0.224      0.001879  
   2   129   1     0     3     3  1.23       0.227      0.002818  
   2   130   1     0     3     3  1.23       0.231      0.004228  
   2   131   1U    0     4     4  1.23       0.231      0.006341  
   2   131   2     0     3     3  1.23       0.233      0.001585  
   2   132   1     0     3     3  1.24       0.235      0.002378  
   2   133   1     0     3     3  1.24       0.239      0.003567  
   2   134   1U    0     4     4  1.24       0.239      0.005351  
   2   134   2U    0     4     4  1.24       0.239      0.001338  
   2   134   3     0     3     3  1.24       0.239      0.0003344 
   2   135   1     0     3     3  1.24       0.240      0.0005016 
   2   136   1     0     3     3  1.24       0.240      0.0007524 
   2   137   1     0     3     3  1.24       0.241      0.001129  
   2   138   1     0     3     3  1.24       0.243      0.001693  
   2   139   1     0     3     3  1.25       0.246      0.002539  
   2   140   1     0     3     3  1.25       0.250      0.003809  
   2   141   1     0     4     4  1.26       0.255      0.005714  
   2   142   1U    0     4     4  1.26       0.255      0.008570  
   2   142   2U    0     4     4  1.26       0.255      0.002143  
   2   142   3     0     3     3  1.26       0.256      0.0005357 
   2   143   1     0     3     3  1.26       0.257      0.0008035 
   2   144   1     0     3     3  1.26       0.258      0.001205  
   2   145   1     0     3     3  1.26       0.260      0.001808  
   2   146   1     0     3     3  1.26       0.262      0.002712  
   2   147   1     0     3     3  1.27       0.266      0.004068  
   2   148   1     0     4     4  1.27       0.272      0.006101  
   2   149   1     0     4     4  1.28       0.282      0.009152  
   2   150   1     0     6     6  1.29       0.292      0.01000   
   2   151   1U    0     4     4  1.29       0.292      0.01000   
   2   151   2U    0     4     4  1.29       0.292      0.002500  
   2   151   3     0     3     3  1.29       0.292      0.0006250 
   2   152   1     0     3     3  1.29       0.293      0.0006250 
   2   153   1     0     3     3  1.29       0.294      0.0009375 
   2   154   1     0     3     3  1.30       0.295      0.001406  
   2   155   1     0     3     3  1.30       0.297      0.002109  
   2   156   1     0     4     4  1.30       0.300      0.003164  
   2   157   1U    0     4     4  1.30       0.300      0.004746  
   2   157   2     0     4     4  1.30       0.302      0.001187  
   2   158   1U    0     4     4  1.30       0.302      0.001780  
   2   158   2U    0     4     4  1.30       0.302      0.0004449 
   2   158   3     0     2     2  1.30       0.302      0.0001112 
   2   159   1     0     2     2  1.30       0.302      0.0001669 
   2   160   1     0     3     3  1.30       0.302      0.0002503 
   2   161   1     0     3     3  1.30       0.303      0.0003754 
   2   162   1     0     3     3  1.30       0.303      0.0005631 
   2   163   1     0     3     3  1.30       0.304      0.0008447 
   2   164   1     0     3     3  1.31       0.305      0.001267  
   2   165   1     0     3     3  1.31       0.307      0.001901  
   2   166   1     0     3     3  1.31       0.310      0.002851  
   2   167   1     0     4     4  1.31       0.314      0.004276  
   2   168   1U    0     4     4  1.31       0.314      0.006414  
   2   168   2U    0     4     4  1.31       0.314      0.001604  
   2   168   3     0     3     3  1.31       0.315      0.0004009 
   2   169   1     0     3     3  1.32       0.315      0.0006014 
   2   170   1     0     3     3  1.32       0.316      0.0009020 
   2   171   1     0     3     3  1.32       0.318      0.001353  
   2   172   1     0     3     3  1.32       0.320      0.002030  
   2   173   1     0     3     3  1.32       0.323      0.003044  
   2   174   1     0     3     3  1.33       0.327      0.004567  
   2   175   1     0     4     4  1.33       0.334      0.006850  
   2   176   1U    0     4     4  1.33       0.334      0.01000   
   2   176   2U    0     4     4  1.33       0.334      0.002500  
   2   176   3     0     3     3  1.33       0.335      0.0006250 
   2   177   1     0     3     3  1.34       0.336      0.0009375 
   2   178   1     0     3     3  1.34       0.337      0.001406  
   2   179   1     0     3     3  1.34       0.339      0.002109  
   2   180   1     0     3     3  1.34       0.342      0.003164  
   2   181   1     0     3     3  1.35       0.347      0.004746  
   2   182   1     0     4     4  1.35       0.354      0.007119  
   2   183   1U    0     4     4  1.35       0.354      0.01000   
   2   183   2U    0     4     4  1.35       0.354      0.002500  
   2   183   3     0     3     3  1.35       0.355      0.0006250 
   2   184   1     0     3     3  1.36       0.356      0.0009375 
   2   185   1     0     3     3  1.36       0.357      0.001406  
   2   186   1     0     3     3  1.36       0.359      0.002109  
   2   187   1     0     3     3  1.36       0.362      0.003164  
   2   188   1     0     4     4  1.37       0.367      0.004746  
   2   189   1U    0     4     4  1.37       0.367      0.007119  
   2   189   2U    0     4     4  1.37       0.367      0.001780  
   2   189   3     0     3     3  1.37       0.368      0.0004449 
   2   190   1     0     3     3  1.37       0.368      0.0006674 
   2   191   1     0     3     3  1.37       0.369      0.001001  
   2   192   1     0     3     3  1.37       0.371      0.001502  
   2   193   1     0     3     3  1.37       0.373      0.002253  
   2   194   1     0     3     3  1.38       0.376      0.003379  
   2   195   1     0     4     4  1.38       0.381      0.005068  
   2   196   1U    0     4     4  1.38       0.381      0.007602  
   2   196   2     0     4     4  1.38       0.383      0.001901  
   2   197   1U    0     4     4  1.38       0.383      0.002851  
   2   197   2U    0     4     4  1.38       0.383      0.0007127 
   2   197   3     0     2     2  1.38       0.383      0.0001782 
   2   198   1     0     3     3  1.38       0.384      0.0002673 
   2   199   1     0     3     3  1.38       0.384      0.0004009 
   2   200   1     0     3     3  1.38       0.385      0.0006014 
   2   201   1     0     3     3  1.39       0.386      0.0009020 
   2   202   1     0     3     3  1.39       0.387      0.001353  
   2   203   1     0     3     3  1.39       0.389      0.002030  
   2   204   1     0     3     3  1.39       0.392      0.003044  
   2   205   1     0     3     3  1.40       0.397      0.004567  
   2   206   1     0     5     5  1.40       0.404      0.006850  
   2   207   1U    0     4     4  1.40       0.404      0.006850  
   2   207   2U    0     4     4  1.40       0.404      0.001712  
   2   207   3     0     3     3  1.40       0.404      0.0004281 
   2   208   1     0     3     3  1.40       0.404      0.0004281 
   2   209   1     0     3     3  1.41       0.405      0.0006422 
   2   210   1     0     3     3  1.41       0.406      0.0009633 
   2   211   1     0     3     3  1.41       0.407      0.001445  
   2   212   1     0     3     3  1.41       0.410      0.002167  
   2   213   1     0     3     3  1.41       0.413      0.003251  
   2   214   1     0     3     3  1.42       0.418      0.004876  
   2   215   1     0     5     5  1.43       0.425      0.007315  
   2   216   1U    0     4     4  1.43       0.425      0.007315  
   2   216   2U    0     4     4  1.43       0.425      0.001829  
   2   216   3     0     3     3  1.43       0.425      0.0004572 
   2   217   1     0     3     3  1.43       0.426      0.0004572 
   2   218   1     0     3     3  1.43       0.427      0.0006858 
   2   219   1     0     3     3  1.43       0.428      0.001029  
   2   220   1     0     3     3  1.43       0.429      0.001543  
   2   221   1     0     3     3  1.43       0.432      0.002314  
   2   222   1     0     4     4  1.43       0.435      0.003472  
   2   223   1U    0     4     4  1.43       0.435      0.005207  
   2   223   2U    0     4     4  1.43       0.435      0.001302  
   2   223   3     0     3     3  1.44       0.435      0.0003255 
   2   224   1     0     3     3  1.44       0.436      0.0004882 
   2   225   1     0     3     3  1.44       0.437      0.0007323 
   2   226   1     0     3     3  1.44       0.438      0.001098  
   2   227   1     0     3     3  1.44       0.439      0.001648  
   2   228   1     0     3     3  1.44       0.442      0.002472  
   2   229   1     0     3     3  1.45       0.445      0.003707  
   2   230   1     0     4     4  1.45       0.451      0.005561  
   2   231   1U    0     4     4  1.45       0.451      0.008341  
   2   231   2U    0     4     4  1.45       0.451      0.002085  
   2   231   3     0     3     3  1.45       0.452      0.0005213 
   2   232   1     0     3     3  1.45       0.452      0.0007820 
   2   233   1U    0     4     4  1.45       0.452      0.001173  
   2   233   2     0     4     4  1.45       0.453      0.0002933 
   2   234   1U    0     4     4  1.45       0.453      0.0004399 
   2   234   2U    0     4     4  1.45       0.453      0.0001100 
   2   234   3     0     2     2  1.45       0.453      2.749e-05 
   2   235   1     0     2     2  1.45       0.453      4.124e-05 
   2   236   1     0     2     2  1.45       0.453      6.186e-05 
   2   237   1     0     2     2  1.45       0.453      9.279e-05 
   2   238   1     0     2     2  1.45       0.453      0.0001392 
   2   239   1     0     4     4  1.45       0.453      0.0002088 
   2   240   1U    0     4     4  1.45       0.453      0.0003132 
   2   240   2U    0     4     4  1.45       0.453      7.829e-05 
   2   240   3     0     2     2  1.45       0.453      1.957e-05 
   2   241   1     0     2     2  1.45       0.453      2.936e-05 
   2   242   1     0     2     2  1.45       0.453      4.404e-05 
   2   243   1     0     2     2  1.45       0.453      6.606e-05 
   2   244   1     0     2     2  1.45       0.453      9.908e-05 
   2   245   1     0     2     2  1.45       0.454      0.0001486 
   2   246   1     0     3     3  1.45       0.454      0.0002229 
   2   247   1     0     3     3  1.45       0.454      0.0003344 
   2   248   1     0     3     3  1.45       0.455      0.0005016 
   2   249   1     0     3     3  1.46       0.455      0.0007524 
   2   250   1     0     3     3  1.46       0.457      0.001129  
   2   251   1     0     3     3  1.46       0.458      0.001693  
   2   252   1     0     3     3  1.46       0.461      0.002539  
   2   253   1     0     3     3  1.46       0.465      0.003809  
   2   254   1     0     4     4  1.47       0.470      0.005714  
   2   255   1U    0     4     4  1.47       0.470      0.008570  
   2   255   2     0     4     4  1.47       0.472      0.002143  
   2   256   1U    0     4     4  1.47       0.472      0.003214  
   2   256   2U    0     4     4  1.47       0.472      0.0008035 
   2   256   3     0     2     2  1.47       0.473      0.0002009 
   2   257   1     0     3     3  1.47       0.473      0.0003013 
   2   258   1U    0     4     4  1.47       0.473      0.0004520 
   2   258   2     0     4     4  1.47       0.473      0.0001130 
   2   259   1U    0     4     4  1.47       0.473      0.0001695 
   2   259   2U    0     4     4  1.47       0.473      4.237e-05 
   2   259   3     0     2     2  1.47       0.473      1.059e-05 
   2   260   1     0     2     2  1.47       0.473      1.589e-05 
   2   261   1     0     2     2  1.47       0.473      2.383e-05 
   2   262   1     0     2     2  1.47       0.473      3.575e-05 
   2   263   1     0     2     2  1.47       0.473      5.363e-05 
   2   264   1     0     2     2  1.47       0.473      8.044e-05 
   2   265   1     0     2     2  1.47       0.473      0.0001207 
   2   266   1     0     3     3  1.47       0.474      0.0001810 
   2   267   1     0     3     3  1.47       0.474      0.0002715 
   2   268   1     0     3     3  1.47       0.474      0.0004072 
   2   269   1     0     3     3  1.47       0.475      0.0006108 
   2   270   1     0     3     3  1.48       0.476      0.0009163 
   2   271   1     0     3     3  1.48       0.477      0.001374  
   2   272   1U    0     4     4  1.48       0.477      0.002062  
   2   272   2     0     4     4  1.48       0.478      0.0005154 
   2   273   1U    0     4     4  1.48       0.478      0.0007731 
   2   273   2U    0     4     4  1.48       0.478      0.0001933 
   2   273   3     0     2     2  1.48       0.478      4.832e-05 
   2   274   1     0     2     2  1.48       0.478      7.248e-05 
   2   275   1     0     2     2  1.48       0.478      0.0001087 
   2   276   1     0     2     2  1.48       0.478      0.0001631 
   2   277   1     0     3     3  1.48       0.478      0.0002446 
   2   278   1     0     3     3  1.48       0.479      0.0003669 
   2   279   1     0     3     3  1.48       0.479      0.0005504 
   2   280   1     0     3     3  1.48       0.480      0.0008256 
   2   281   1     0     3     3  1.48       0.481      0.001238  
   2   282   1U    0     4     4  1.48       0.481      0.001858  
   2   282   2     0     7     7  1.48       0.482      0.0004644 
   2   283   1U    0     4     4  1.48       0.482      0.0004644 
   2   283   2U    0     4     4  1.48       0.482      0.0001161 
   2   283   3     0     2     2  1.48       0.482      2.902e-05 
   2   284   1     0     2     2  1.48       0.482      2.902e-05 
   2   285   1     0     2     2  1.48       0.482      4.354e-05 
   2   286   1     0     2     2  1.48       0.482      6.530e-05 
   2   287   1     0     2     2  1.48       0.482      9.795e-05 
   2   288   1     0     2     2  1.48       0.482      0.0001469 
   2   289   1     0     2     2  1.48       0.482      0.0002204 
   2   290   1     0     3     3  1.48       0.483      0.0003306 
   2   291   1     0     3     3  1.48       0.483      0.0004959 
   2   292   1     0     3     3  1.48       0.484      0.0007438 
   2   293   1     0     3     3  1.49       0.485      0.001116  
   2   294   1     0     3     3  1.49       0.487      0.001674  
   2   295   1     0     3     3  1.49       0.489      0.002510  
   2   296   1     0     3     3  1.49       0.493      0.003766  
   2   297   1     0     3     3  1.50       0.499      0.005649  
   2   298   1     0     4     4  1.51       0.507      0.008473  
   2   299   1     0     4     4  1.52       0.517      0.01000   
   2   300   1U    0     4     4  1.52       0.517      0.01000   
   2   300   2U    0     4     4  1.52       0.517      0.002500  
   2   300   3     0     3     3  1.52       0.518      0.0006250 
   2   301   1     0     3     3  1.52       0.519      0.0009375 
   2   302   1     0     3     3  1.52       0.520      0.001406  
   2   303   1     0     3     3  1.52       0.522      0.002109  
   2   304   1     0     3     3  1.53       0.525      0.003164  
   2   305   1     0     3     3  1.53       0.530      0.004746  
   2   306   1     0     3     3  1.54       0.537      0.007119  
   2   307   1     0     4     4  1.55       0.547      0.01000   
   2   308   1     0     4     4  1.56       0.557      0.01000   
   2   309   1U    0     4     4  1.56       0.557      0.01000   
   2   309   2U    0     4     4  1.56       0.557      0.002500  
   2   309   3     0     3     3  1.56       0.558      0.0006250 
   2   310   1     0     3     3  1.56       0.559      0.0009375 
   2   311   1     0     3     3  1.56       0.560      0.001406  
   2   312   1     0     3     3  1.56       0.562      0.002109  
   2   313   1     0     3     3  1.57       0.565      0.003164  
   2   314   1     0     3     3  1.57       0.570      0.004746  
   2   315   1     0     3     3  1.58       0.577      0.007119  
   2   316   1     0     4     4  1.59       0.587      0.01000   
   2   317   1     0     4     4  1.60       0.597      0.01000   
   2   318   1U    0     4     4  1.60       0.597      0.01000   
   2   318   2U    0     4     4  1.60       0.597      0.002500  
   2   318   3     0     3     3  1.60       0.598      0.0006250 
   2   319   1     0     3     3  1.60       0.599      0.0009375 
   2   320   1     0     3     3  1.60       0.600      0.001406  
   2   321   1     0     3     3  1.60       0.602      0.002109  
   2   322   1     0     3     3  1.61       0.606      0.003164  
   2   323   1     0     3     3  1.61       0.610      0.004746  
   2   324   1     0     4     4  1.62       0.617      0.007119  
   2   325   1     0     8     8  1.63       0.627      0.01000   
   2   326   1U    0     4     4  1.63       0.627      0.01000   
   2   326   2U    0     4     4  1.63       0.627      0.002500  
   2   326   3     0     3     3  1.63       0.628      0.0006250 
   2   327   1     0     3     3  1.63       0.629      0.0006250 
   2   328   1     0     3     3  1.63       0.630      0.0009375 
   2   329   1     0     3     3  1.63       0.631      0.001406  
   2   330   1     0     3     3  1.63       0.633      0.002109  
   2   331   1     0     3     3  1.64       0.636      0.003164  
   2   332   1     0     3     3  1.64       0.641      0.004746  
   2   333   1     0     3     3  1.65       0.648      0.007119  
   2   334   1     0     4     4  1.66       0.658      0.01000   
   2   335   1U    0     4     4  1.66       0.658      0.01000   
   2   335   2     0     5     5  1.66       0.661      0.002500  
   2   336   1U    0     4     4  1.66       0.661      0.002500  
   2   336   2U    0     4     4  1.66       0.661      0.0006250 
   2   336   3     0     2     2  1.66       0.661      0.0001563 
   2   337   1     0     3     3  1.66       0.661      0.0001563 
   2   338   1     0     3     3  1.66       0.661      0.0002344 
   2   339   1     0     3     3  1.66       0.662      0.0003516 
   2   340   1     0     3     3  1.66       0.662      0.0005273 
   2   341   1     0     3     3  1.66       0.663      0.0007910 
   2   342   1     0     3     3  1.66       0.664      0.001187  
   2   343   1     0     3     3  1.67       0.666      0.001780  
   2   344   1U    0     4     4  1.67       0.666      0.002670  
   2   344   2U    0     4     4  1.67       0.666      0.0006674 
   2   344   3     0     2     2  1.67       0.666      0.0001669 
   2   345   1     0     3     3  1.67       0.666      0.0002503 
   2   346   1     0     3     3  1.67       0.667      0.0003754 
   2   347   1     0     3     3  1.67       0.667      0.0005631 
   2   348   1     0     3     3  1.67       0.668      0.0008447 
   2   349   1     0     3     3  1.67       0.669      0.001267  
   2   350   1     0     3     3  1.67       0.671      0.001901  
   2   351   1U    0     4     4  1.67       0.671      0.002851  
   2   351   2U    0     4     4  1.67       0.671      0.0007127 
   2   351   3     0     2     2  1.67       0.671      0.0001782 
   2   352   1     0     3     3  1.67       0.672      0.0002673 
   2   353   1     0     3     3  1.67       0.672      0.0004009 
   2   354   1     0     3     3  1.67       0.673      0.0006014 
   2   355   1     0     3     3  1.67       0.674      0.0009020 
   2   356   1     0     3     3  1.67       0.675      0.001353  
   2   357   1     0     3     3  1.68       0.677      0.002030  
   2   358   1     0     3     3  1.68       0.680      0.003044  
   2   359   1U    0     4     4  1.68       0.680      0.004567  
   2   359   2U    0     4     4  1.68       0.680      0.001142  
   2   359   3     0     2     2  1.68       0.680      0.0002854 
   2   360   1     0     3     3  1.68       0.681      0.0004281 
   2   361   1     0     3     3  1.68       0.681      0.0006422 
   2   362   1     0     3     3  1.68       0.682      0.0009633 
   2   363   1     0     3     3  1.68       0.684      0.001445  
   2   364   1     0     3     3  1.69       0.686      0.002167  
   2   365   1     0     3     3  1.69       0.689      0.003251  
   2   366   1     0     3     3  1.69       0.694      0.004876  
   2   367   1     0     4     4  1.70       0.701      0.007315  
   2   368   1U    0     4     4  1.70       0.701      0.01000   
   2   368   2     0     8     8  1.70       0.704      0.002500  
   2   369   1U    0     4     4  1.70       0.704      0.002500  
   2   369   2U    0     4     4  1.70       0.704      0.0006250 
   2   369   3     0     2     2  1.70       0.704      0.0001563 
   2   370   1     0     2     2  1.70       0.704      0.0001563 
   2   371   1     0     3     3  1.70       0.704      0.0002344 
   2   372   1     0     3     3  1.70       0.705      0.0003516 
   2   373   1     0     3     3  1.71       0.705      0.0005273 
   2   374   1     0     3     3  1.71       0.706      0.0007910 
   2   375   1     0     3     3  1.71       0.707      0.001187  
   2   376   1     0     3     3  1.71       0.709      0.001780  
   2   377   1     0     3     3  1.71       0.712      0.002670  
   2   378   1     0     3     3  1.72       0.716      0.004005  
   2   379   1     0     3     3  1.72       0.722      0.006007  
   2   380   1     0     4     4  1.73       0.731      0.009010  
   2   381   1U    0     4     4  1.73       0.731      0.01000   
   2   381   2U    0     4     4  1.73       0.731      0.002500  
   2   381   3     0     3     3  1.73       0.731      0.0006250 
   2   382   1     0     3     3  1.73       0.732      0.0009375 
   2   383   1     0     3     3  1.73       0.734      0.001406  
   2   384   1     0     3     3  1.74       0.736      0.002109  
   2   385   1     0     3     3  1.74       0.739      0.003164  
   2   386   1     0     5     5  1.74       0.744      0.004746  
   2   387   1U    0     4     4  1.74       0.744      0.004746  
   2   387   2U    0     4     4  1.74       0.744      0.001187  
   2   387   3     0     3     3  1.74       0.744      0.0002966 
   2   388   1     0     3     3  1.74       0.744      0.0002966 
   2   389   1     0     3     3  1.74       0.745      0.0004449 
   2   390   1     0     3     3  1.75       0.745      0.0006674 
   2   391   1     0     3     3  1.75       0.746      0.001001  
   2   392   1     0     3     3  1.75       0.748      0.001502  
   2   393   1     0     3     3  1.75       0.750      0.002253  
   2   394   1     0     3     3  1.75       0.754      0.003379  
   2   395   1     0     4     4  1.76       0.759      0.005068  
   2   396   1U    0     4     4  1.76       0.759      0.007602  
   2   396   2     0    12    12  1.76       0.761      0.001901  
   2   397   1U    0     4     4  1.76       0.761      0.001425  
   2   397   2     0     9     9  1.76       0.761      0.0003564 
   2   398   1U    0     4     4  1.76       0.761      0.0003564 
   2   398   2U    0     4     4  1.76       0.761      8.909e-05 
   2   398   3     0     2     2  1.76       0.761      2.227e-05 
   2   399   1     0     2     2  1.76       0.761      2.227e-05 
   2   400   1     0     2     2  1.76       0.761      3.341e-05 
   2   401   1     0     2     2  1.76       0.761      5.011e-05 
   2   402   1     0     2     2  1.76       0.761      7.517e-05 
   2   403   1     0     2     2  1.76       0.761      0.0001128 
   2   404   1     0     2     2  1.76       0.761      0.0001691 
   2   405   1     0     3     3  1.76       0.762      0.0002537 
   2   406   1     0     2     2  1.76       0.762      0.0003805 
   2   407   1     0     3     3  1.76       0.763      0.0005708 
   2   408   1     0     3     3  1.76       0.763      0.0008562 
   2   409   1     0     3     3  1.76       0.765      0.001284  
   2   410   1     0     3     3  1.77       0.767      0.001927  
   2   411   1     0     3     3  1.77       0.770      0.002890  
   2   412   1     0     3     3  1.77       0.774      0.004335  
   2   413   1     0     3     3  1.78       0.780      0.006502  
   2   414   1     0     4     4  1.79       0.790      0.009753  
   2   415   1     0     4     4  1.80       0.800      0.01000   
   2   416   1U    0     4     4  1.80       0.800      0.01000   
   2   416   2U    0     4     4  1.80       0.800      0.002500  
   2   416   3     0     3     3  1.80       0.801      0.0006250 
   2   417   1     0     3     3  1.80       0.802      0.0009375 
   2   418   1     0     3     3  1.80       0.803      0.001406  
   2   419   1     0     3     3  1.81       0.805      0.002109  
   2   420   1     0     3     3  1.81       0.808      0.003164  
   2   421   1     0     3     3  1.81       0.813      0.004746  
   2   422   1     0     3     3  1.82       0.820      0.007119  
   2   423   1     0     3     3  1.83       0.830      0.01000   
   2   424   1     0     3     3  1.84       0.840      0.01000   
   2   425   1     0     3     3  1.85       0.850      0.01000   
   2   426   1     0     3     3  1.86       0.860      0.01000   
   2   427   1     0     3     3  1.87       0.870      0.01000   
   2   428   1     0     3     3  1.88       0.880      0.01000   
   2   429   1     0     3     3  1.89       0.890      0.01000   
   2   430   1     0     3     3  1.90       0.900      0.01000   
   2   431   1     0     3     3  1.91       0.910      0.01000   
   2   432   1     0     3     3  1.92       0.920      0.01000   
   2   433   1     0     3     3  1.93       0.930      0.01000   
   2   434   1     0     3     3  1.94       0.940      0.01000   
   2   435   1     0     3     3  1.95       0.950      0.01000   
   2   436   1     0     3     3  1.96       0.960      0.01000   
   2   437   1     0     3     3  1.97       0.970      0.01000   
   2   438   1     0     3     3  1.98       0.980      0.01000   
   2   439   1     0     3     3  1.99       0.990      0.01000   
   2   440   1     0     3     3  2.00       1.00       0.009738  
   3     1   1     0     2     2  2.00       0.000100   0.0001000 
   3     2   1     0     2     2  2.00       0.000200   0.0001000 
   3     3   1     0     2     2  2.00       0.000350   0.0001500 
   3     4   1     0     2     2  2.00       0.000575   0.0002250 
   3     5   1     0     3     3  2.00       0.000913   0.0003375 
   3     6   1     0     3     3  2.00       0.00142    0.0005062 
   3     7   1     0     3     3  2.00       0.00218    0.0007594 
   3     8   1     0     3     3  2.00       0.00332    0.001139  
   3     9   1     0     3     3  2.01       0.00503    0.001709  
   3    10   1     0     3     3  2.01       0.00759    0.002563  
   3    11   1     0     3     3  2.01       0.0114     0.003844  
   3    12   1     0     3     3  2.02       0.0172     0.005767  
   3    13   1     0     3     3  2.03       0.0258     0.008650  
   3    14   1     0     4     4  2.04       0.0358     0.01000   
   3    15   1U    0     4     4  2.04       0.0358     0.01000   
   3    15   2     0     5     5  2.04       0.0383     0.002500  
   3    16   1U    0     4     4  2.04       0.0383     0.002500  
   3    16   2U    0     4     4  2.04       0.0383     0.0006250 
   3    16   3     0     2     2  2.04       0.0385     0.0001563 
   3    17   1     0     3     3  2.04       0.0387     0.0001563 
   3    18   1     0     3     3  2.04       0.0389     0.0002344 
   3    19   1     0     3     3  2.04       0.0392     0.0003516 
   3    20   1     0     3     3  2.04       0.0398     0.0005273 
   3    21   1     0     5     5  2.04       0.0406     0.0007910 
   3    22   1U    0     4     4  2.04       0.0406     0.0007910 
   3    22   2U    0     4     4  2.04       0.0406     0.0001978 
   3    22   3     0     2     2  2.04       0.0406     4.944e-05 
   3    23   1     0     2     2  2.04       0.0407     4.944e-05 
   3    24   1     0     2     2  2.04       0.0407     7.416e-05 
   3    25   1     0     2     2  2.04       0.0409     0.0001112 
   3    26   1     0     3     3  2.04       0.0410     0.0001669 
   3    27   1U    0     4     4  2.04       0.0410     0.0002503 
   3    27   2U    0     4     4  2.04       0.0410     6.257e-05 
   3    27   3     0     2     2  2.04       0.0410     1.564e-05 
   3    28   1     0     2     2  2.04       0.0411     2.346e-05 
   3    29   1     0     2     2  2.04       0.0411     3.520e-05 
   3    30   1     0     2     2  2.04       0.0411     5.279e-05 
   3    31   1     0     2     2  2.04       0.0412     7.919e-05 
   3    32   1     0     2     2  2.04       0.0413     0.0001188 
   3    33   1     0     2     2  2.04       0.0415     0.0001782 
   3    34   1     0     2     2  2.04       0.0418     0.0002673 
   3    35   1     0     2     2  2.04       0.0422     0.0004009 
   3    36   1     0     3     3  2.04       0.0428     0.0006014 
   3    37   1     0     3     3  2.04       0.0437     0.0009020 
   3    38   1     0     3     3  2.05       0.0450     0.001353  
   3    39   1     0     3     3  2.05       0.0471     0.002030  
   3    40   1     0     3     3  2.05       0.0501     0.003044  
   3    41   1     0     3     3  2.05       0.0547     0.004567  
   3    42   1     0     4     4  2.06       0.0615     0.006850  
   3    43   1U    0     4     4  2.06       0.0615     0.01000   
   3    43   2U    0     4     4  2.06       0.0615     0.002500  
   3    43   3     0     3     3  2.06       0.0622     0.0006250 
   3    44   1     0     3     3  2.06       0.0631     0.0009375 
   3    45   1U    0     4     4  2.06       0.0631     0.001406  
   3    45   2     0     8     8  2.06       0.0634     0.0003516 
   3    46   1U    0     4     4  2.06       0.0634     0.0003516 
   3    46   2U    0     4     4  2.06       0.0634     8.789e-05 
   3    46   3     0     2     2  2.06       0.0635     2.197e-05 
   3    47   1     0     2     2  2.06       0.0635     2.197e-05 
   3    48   1     0     2     2  2.06       0.0635     3.296e-05 
   3    49   1     0     2     2  2.06       0.0636     4.944e-05 
   3    50   1     0     2     2  2.06       0.0636     7.416e-05 
   3    51   1     0     2     2  2.06       0.0638     0.0001112 
   3    52   1     0     2     2  2.06       0.0639     0.0001669 
   3    53   1     0     3     3  2.06       0.0642     0.0002503 
   3    54   1     0     3     3  2.06       0.0646     0.0003754 
   3    55   1     0     3     3  2.07       0.0651     0.0005631 
   3    56   1     0     3     3  2.07       0.0660     0.0008447 
   3    57   1     0     3     3  2.07       0.0672     0.001267  
   3    58   1     0     3     3  2.07       0.0691     0.001901  
   3    59   1     0     3     3  2.07       0.0720     0.002851  
   3    60   1     0     3     3  2.08       0.0763     0.004276  
   3    61   1     0     4     4  2.08       0.0827     0.006414  
   3    62   1U    0     4     4  2.08       0.0827     0.009622  
   3    62   2U    0     4     4  2.08       0.0827     0.002405  
   3    62   3     0     3     3  2.08       0.0833     0.0006014 
   3    63   1     0     3     3  2.08       0.0842     0.0009020 
   3    64   1     0     3     3  2.09       0.0855     0.001353  
   3    65   1     0     3     3  2.09       0.0876     0.002030  
   3    66   1     0     6     6  2.09       0.0906     0.003044  
   3    67   1U    0     4     4  2.09       0.0906     0.003044  
   3    67   2U    0     4     4  2.09       0.0906     0.0007611 
   3    67   3     0     2     2  2.09       0.0908     0.0001903 
   3    68   1     0     3     3  2.09       0.0910     0.0001903 
   3    69   1     0     3     3  2.09       0.0913     0.0002854 
   3    70   1     0     3     3  2.09       0.0917     0.0004281 
   3    71   1     0     3     3  2.09       0.0923     0.0006422 
   3    72   1     0     3     3  2.09       0.0933     0.0009633 
   3    73   1     0     3     3  2.09       0.0947     0.001445  
   3    74   1     0     3     3  2.10       0.0969     0.002167  
   3    75   1     0     3     3  2.10       0.100      0.003251  
   3    76   1     0     3     3  2.11       0.105      0.004876  
   3    77   1     0     4     4  2.11       0.112      0.007315  
   3    78   1U    0     4     4  2.11       0.112      0.01000   
   3    78   2U    0     4     4  2.11       0.112      0.002500  
   3    78   3     0     3     3  2.11       0.113      0.0006250 
   3    79   1     0     3     3  2.11       0.114      0.0009375 
[...]
   6   385   1     0     3     3  5.54       0.541      0.0008351 
   6   386   1     0     3     3  5.54       0.542      0.001253  
   6   387   1     0     3     3  5.54       0.544      0.001879  
   6   388   1     0     3     3  5.55       0.547      0.002818  
   6   389   1     0     3     3  5.55       0.551      0.004228  
   6   390   1     0     4     4  5.56       0.558      0.006341  
   6   391   1     0     4     4  5.57       0.567      0.009512  
   6   392   1     0     8     8  5.58       0.577      0.01000   
   6   393   1U    0     4     4  5.58       0.577      0.01000   
   6   393   2U    0     4     4  5.58       0.577      0.002500  
   6   393   3     0     3     3  5.58       0.578      0.0006250 
   6   394   1     0     3     3  5.58       0.578      0.0006250 
   6   395   1     0     3     3  5.58       0.579      0.0009375 
   6   396   1     0     4     4  5.58       0.581      0.001406  
   6   397   1U    0     4     4  5.58       0.581      0.002109  
   6   397   2U    0     4     4  5.58       0.581      0.0005273 
   6   397   3     0     3     3  5.58       0.581      0.0001318 
   6   398   1     0     3     3  5.58       0.581      0.0001978 
   6   399   1     0     3     3  5.58       0.581      0.0002966 
   6   400   1     0     3     3  5.58       0.582      0.0004449 
   6   401   1     0     3     3  5.58       0.582      0.0006674 
   6   402   1     0     3     3  5.58       0.583      0.001001  
   6   403   1     0     3     3  5.58       0.585      0.001502  
   6   404   1     0     3     3  5.59       0.587      0.002253  
   6   405   1     0     3     3  5.59       0.591      0.003379  
   6   406   1     0     3     3  5.60       0.596      0.005068  
   6   407   1     0     4     4  5.60       0.603      0.007602  
   6   408   1     0     4     4  5.61       0.613      0.01000   
   6   409   1U    0     4     4  5.61       0.613      0.01000   
   6   409   2U    0     4     4  5.61       0.613      0.002500  
   6   409   3     0     3     3  5.61       0.614      0.0006250 
   6   410   1     0     3     3  5.61       0.615      0.0009375 
   6   411   1     0     3     3  5.62       0.616      0.001406  
   6   412   1     0     3     3  5.62       0.618      0.002109  
   6   413   1     0     3     3  5.62       0.621      0.003164  
   6   414   1     0     3     3  5.63       0.626      0.004746  
   6   415   1     0     5     5  5.63       0.633      0.007119  
   6   416   1U    0     4     4  5.63       0.633      0.007119  
   6   416   2U    0     4     4  5.63       0.633      0.001780  
   6   416   3     0     3     3  5.63       0.634      0.0004449 
   6   417   1     0     3     3  5.63       0.634      0.0004449 
   6   418   1     0     3     3  5.63       0.635      0.0006674 
   6   419   1     0     3     3  5.64       0.636      0.001001  
   6   420   1     0     3     3  5.64       0.637      0.001502  
   6   421   1     0     3     3  5.64       0.640      0.002253  
   6   422   1     0     3     3  5.64       0.643      0.003379  
   6   423   1     0     4     4  5.65       0.648      0.005068  
   6   424   1     0     5     5  5.66       0.656      0.007602  
   6   425   1U    0     4     4  5.66       0.656      0.007602  
   6   425   2U    0     4     4  5.66       0.656      0.001901  
   6   425   3     0     3     3  5.66       0.656      0.0004751 
   6   426   1     0     3     3  5.66       0.657      0.0004751 
   6   427   1     0     3     3  5.66       0.657      0.0007127 
   6   428   1     0     3     3  5.66       0.658      0.001069  
   6   429   1     0     3     3  5.66       0.660      0.001604  
   6   430   1     0     3     3  5.66       0.662      0.002405  
   6   431   1     0     3     3  5.67       0.666      0.003608  
   6   432   1     0     4     4  5.67       0.671      0.005412  
   6   433   1U    0     4     4  5.67       0.671      0.008118  
   6   433   2     0     6     6  5.67       0.673      0.002030  
   6   434   1U    0     4     4  5.67       0.673      0.002030  
   6   434   2U    0     4     4  5.67       0.673      0.0005074 
   6   434   3     0     3     3  5.67       0.674      0.0001268 
   6   435   1     0     4     4  5.67       0.674      0.0001268 
   6   436   1U    0     4     4  5.67       0.674      0.0001903 
   6   436   2U    0     4     4  5.67       0.674      4.757e-05 
   6   436   3     0     2     2  5.67       0.674      1.189e-05 
   6   437   1     0     2     2  5.67       0.674      1.784e-05 
   6   438   1     0     2     2  5.67       0.674      2.676e-05 
   6   439   1     0     3     3  5.67       0.674      4.014e-05 
   6   440   1     0     3     3  5.67       0.674      6.020e-05 
   6   441   1     0     3     3  5.67       0.674      9.031e-05 
   6   442   1     0     3     3  5.67       0.674      0.0001355 
   6   443   1     0     3     3  5.67       0.674      0.0002032 
   6   444   1     0     3     3  5.67       0.675      0.0003048 
   6   445   1     0     3     3  5.68       0.675      0.0004572 
   6   446   1     0     3     3  5.68       0.676      0.0006858 
   6   447   1     0     3     3  5.68       0.677      0.001029  
   6   448   1     0     3     3  5.68       0.678      0.001543  
   6   449   1     0     3     3  5.68       0.681      0.002314  
   6   450   1     0     3     3  5.68       0.684      0.003472  
   6   451   1     0     4     4  5.69       0.689      0.005207  
   6   452   1     0     9     9  5.70       0.697      0.007811  
   6   453   1U    0     4     4  5.70       0.697      0.007811  
   6   453   2U    0     4     4  5.70       0.697      0.001953  
   6   453   3     0     3     3  5.70       0.698      0.0004882 
   6   454   1     0     3     3  5.70       0.698      0.0004882 
   6   455   1     0     3     3  5.70       0.699      0.0007323 
   6   456   1     0     3     3  5.70       0.700      0.001098  
   6   457   1     0     3     3  5.70       0.702      0.001648  
   6   458   1     0     3     3  5.70       0.704      0.002472  
   6   459   1     0     3     3  5.71       0.708      0.003707  
   6   460   1     0     4     4  5.71       0.713      0.005561  
   6   461   1U    0     4     4  5.71       0.713      0.008341  
   6   461   2U    0     4     4  5.71       0.713      0.002085  
   6   461   3     0     3     3  5.71       0.714      0.0005213 
   6   462   1     0     3     3  5.71       0.715      0.0007820 
   6   463   1     0     3     3  5.72       0.716      0.001173  
   6   464   1     0     3     3  5.72       0.718      0.001760  
   6   465   1     0     3     3  5.72       0.720      0.002639  
   6   466   1     0     3     3  5.72       0.724      0.003959  
   6   467   1     0     3     3  5.73       0.730      0.005938  
   6   468   1     0     4     4  5.74       0.739      0.008907  
   6   469   1     0     4     4  5.75       0.749      0.01000   
   6   470   1U    0     4     4  5.75       0.749      0.01000   
   6   470   2     0     5     5  5.75       0.752      0.002500  
   6   471   1U    0     4     4  5.75       0.752      0.002500  
   6   471   2U    0     4     4  5.75       0.752      0.0006250 
   6   471   3     0     3     3  5.75       0.752      0.0001563 
   6   472   1     0     3     3  5.75       0.752      0.0001563 
   6   473   1     0     3     3  5.75       0.752      0.0002344 
   6   474   1     0     3     3  5.75       0.752      0.0003516 
   6   475   1     0     3     3  5.75       0.753      0.0005273 
   6   476   1     0     3     3  5.75       0.754      0.0007910 
   6   477   1     0     3     3  5.75       0.755      0.001187  
   6   478   1     0     3     3  5.76       0.757      0.001780  
   6   479   1     0     3     3  5.76       0.759      0.002670  
   6   480   1     0     3     3  5.76       0.763      0.004005  
   6   481   1     0     4     4  5.77       0.769      0.006007  
   6   482   1U    0     4     4  5.77       0.769      0.009010  
   6   482   2U    0     4     4  5.77       0.769      0.002253  
   6   482   3     0     3     3  5.77       0.770      0.0005631 
   6   483   1     0     3     3  5.77       0.771      0.0008447 
   6   484   1     0     3     3  5.77       0.772      0.001267  
   6   485   1     0     3     3  5.77       0.774      0.001901  
   6   486   1     0     3     3  5.78       0.777      0.002851  
   6   487   1     0     3     3  5.78       0.781      0.004276  
   6   488   1     0     5     5  5.79       0.788      0.006414  
   6   489   1U    0     4     4  5.79       0.788      0.006414  
   6   489   2U    0     4     4  5.79       0.788      0.001604  
   6   489   3     0     3     3  5.79       0.788      0.0004009 
   6   490   1     0     3     3  5.79       0.788      0.0004009 
   6   491   1     0     3     3  5.79       0.789      0.0006014 
   6   492   1     0     3     3  5.79       0.790      0.0009020 
   6   493   1     0     3     3  5.79       0.791      0.001353  
   6   494   1     0     3     3  5.79       0.793      0.002030  
   6   495   1     0     3     3  5.80       0.796      0.003044  
   6   496   1     0     4     4  5.80       0.801      0.004567  
   6   497   1U    0     4     4  5.80       0.801      0.006850  
   6   497   2U    0     4     4  5.80       0.801      0.001712  
   6   497   3     0     3     3  5.80       0.801      0.0004281 
   6   498   1     0     3     3  5.80       0.802      0.0006422 
   6   499   1     0     3     3  5.80       0.803      0.0009633 
   6   500   1     0     3     3  5.80       0.804      0.001445  
   6   501   1     0     3     3  5.81       0.806      0.002167  
   6   502   1     0     3     3  5.81       0.810      0.003251  
   6   503   1     0     4     4  5.81       0.815      0.004876  
   6   504   1U    0     4     4  5.81       0.815      0.007315  
   6   504   2     0     5     5  5.82       0.816      0.001829  
   6   505   1U    0     4     4  5.82       0.816      0.001829  
   6   505   2U    0     4     4  5.82       0.816      0.0004572 
   6   505   3     0     3     3  5.82       0.817      0.0001143 
   6   506   1     0     3     3  5.82       0.817      0.0001143 
   6   507   1     0     3     3  5.82       0.817      0.0001714 
   6   508   1     0     3     3  5.82       0.817      0.0002572 
   6   509   1     0     3     3  5.82       0.817      0.0003857 
   6   510   1     0     3     3  5.82       0.818      0.0005786 
   6   511   1     0     3     3  5.82       0.819      0.0008679 
   6   512   1     0     4     4  5.82       0.820      0.001302  
   6   513   1U    0     4     4  5.82       0.820      0.001953  
   6   513   2U    0     4     4  5.82       0.820      0.0004882 
   6   513   3     0     3     3  5.82       0.820      0.0001220 
   6   514   1     0     3     3  5.82       0.820      0.0001831 
   6   515   1     0     3     3  5.82       0.821      0.0002746 
   6   516   1     0     3     3  5.82       0.821      0.0004119 
   6   517   1     0     3     3  5.82       0.822      0.0006179 
   6   518   1     0     3     3  5.82       0.823      0.0009268 
   6   519   1     0     3     3  5.82       0.824      0.001390  
   6   520   1     0     3     3  5.83       0.826      0.002085  
   6   521   1     0     3     3  5.83       0.829      0.003128  
   6   522   1     0     3     3  5.83       0.834      0.004692  
   6   523   1     0     4     4  5.84       0.841      0.007038  
   6   524   1U    0     4     4  5.84       0.841      0.01000   
   6   524   2U    0     4     4  5.84       0.841      0.002500  
   6   524   3     0     3     3  5.84       0.842      0.0006250 
   6   525   1     0     3     3  5.84       0.843      0.0009375 
   6   526   1     0     3     3  5.84       0.844      0.001406  
   6   527   1     0     3     3  5.85       0.846      0.002109  
   6   528   1     0     3     3  5.85       0.849      0.003164  
   6   529   1     0     3     3  5.85       0.854      0.004746  
   6   530   1     0     4     4  5.86       0.861      0.007119  
   6   531   1     0     6     6  5.87       0.871      0.01000   
   6   532   1U    0     4     4  5.87       0.871      0.01000   
   6   532   2U    0     4     4  5.87       0.871      0.002500  
   6   532   3     0     3     3  5.87       0.872      0.0006250 
   6   533   1     0     3     3  5.87       0.872      0.0006250 
   6   534   1     0     3     3  5.87       0.873      0.0009375 
   6   535   1     0     3     3  5.87       0.875      0.001406  
   6   536   1     0     3     3  5.88       0.877      0.002109  
   6   537   1     0     3     3  5.88       0.880      0.003164  
   6   538   1     0     3     3  5.88       0.885      0.004746  
   6   539   1     0     4     4  5.89       0.892      0.007119  
   6   540   1U    0     4     4  5.89       0.892      0.01000   
   6   540   2     0     5     5  5.89       0.894      0.002500  
   6   541   1U    0     4     4  5.89       0.894      0.002500  
   6   541   2U    0     4     4  5.89       0.894      0.0006250 
   6   541   3     0     3     3  5.89       0.895      0.0001563 
   6   542   1     0     3     3  5.89       0.895      0.0001563 
   6   543   1     0     3     3  5.89       0.895      0.0002344 
   6   544   1     0     3     3  5.90       0.895      0.0003516 
   6   545   1     0     3     3  5.90       0.896      0.0005273 
   6   546   1     0     3     3  5.90       0.897      0.0007910 
   6   547   1     0     3     3  5.90       0.898      0.001187  
   6   548   1     0     3     3  5.90       0.900      0.001780  
   6   549   1     0     3     3  5.90       0.902      0.002670  
   6   550   1     0     3     3  5.91       0.906      0.004005  
   6   551   1     0     4     4  5.91       0.912      0.006007  
   6   552   1U    0     4     4  5.91       0.912      0.009010  
   6   552   2     0     9     9  5.91       0.915      0.002253  
   6   553   1U    0     4     4  5.91       0.915      0.002253  
   6   553   2U    0     4     4  5.91       0.915      0.0005631 
   6   553   3     0     2     2  5.91       0.915      0.0001408 
   6   554   1     0     3     3  5.91       0.915      0.0001408 
   6   555   1     0     3     3  5.92       0.915      0.0002112 
   6   556   1     0     7     7  5.92       0.915      0.0003168 
   6   557   1U    0     4     4  5.92       0.915      0.0003168 
   6   557   2U    0     4     4  5.92       0.915      7.919e-05 
   6   557   3     0     2     2  5.92       0.915      1.980e-05 
   6   558   1     0     2     2  5.92       0.915      1.980e-05 
   6   559   1     0     2     2  5.92       0.915      2.970e-05 
   6   560   1     0     2     2  5.92       0.915      4.454e-05 
   6   561   1     0     3     3  5.92       0.916      6.682e-05 
   6   562   1     0     3     3  5.92       0.916      0.0001002 
   6   563   1     0     3     3  5.92       0.916      0.0001503 
   6   564   1     0     3     3  5.92       0.916      0.0002255 
   6   565   1     0     3     3  5.92       0.916      0.0003383 
   6   566   1     0     3     3  5.92       0.917      0.0005074 
   6   567   1     0     3     3  5.92       0.918      0.0007611 
   6   568   1     0     3     3  5.92       0.919      0.001142  
   6   569   1     0     3     3  5.92       0.920      0.001712  
   6   570   1     0     3     3  5.92       0.923      0.002569  
   6   571   1     0     3     3  5.93       0.927      0.003853  
   6   572   1     0     4     4  5.93       0.933      0.005780  
   6   573   1U    0     4     4  5.93       0.933      0.008669  
   6   573   2     0     5     5  5.93       0.935      0.002167  
   6   574   1U    0     4     4  5.93       0.935      0.002167  
   6   574   2U    0     4     4  5.93       0.935      0.0005418 
   6   574   3     0     3     3  5.93       0.935      0.0001355 
   6   575   1     0     3     3  5.94       0.935      0.0001355 
   6   576   1     0     3     3  5.94       0.935      0.0002032 
   6   577   1     0     3     3  5.94       0.936      0.0003048 
   6   578   1     0     3     3  5.94       0.936      0.0004572 
   6   579   1     0     3     3  5.94       0.937      0.0006858 
   6   580   1     0     3     3  5.94       0.938      0.001029  
   6   581   1     0     3     3  5.94       0.939      0.001543  
   6   582   1     0     3     3  5.94       0.942      0.002314  
   6   583   1     0     3     3  5.95       0.945      0.003472  
   6   584   1     0     4     4  5.95       0.950      0.005207  
   6   585   1U    0     4     4  5.95       0.950      0.007811  
   6   585   2U    0     4     4  5.95       0.950      0.001953  
   6   585   3     0     3     3  5.95       0.951      0.0004882 
   6   586   1     0     3     3  5.95       0.952      0.0007323 
   6   587   1     0     3     3  5.95       0.953      0.001098  
   6   588   1     0     3     3  5.95       0.954      0.001648  
   6   589   1     0     3     3  5.96       0.957      0.002472  
   6   590   1     0     3     3  5.96       0.960      0.003707  
   6   591   1     0     3     3  5.97       0.966      0.005561  
   6   592   1     0     5     5  5.97       0.974      0.008341  
   6   593   1U    0     4     4  5.97       0.974      0.008341  
   6   593   2U    0     4     4  5.97       0.974      0.002085  
   6   593   3     0     3     3  5.97       0.975      0.0005213 
   6   594   1     0     3     3  5.98       0.975      0.0005213 
   6   595   1     0     3     3  5.98       0.976      0.0007820 
   6   596   1     0     3     3  5.98       0.977      0.001173  
   6   597   1     0     3     3  5.98       0.979      0.001760  
   6   598   1     0     3     3  5.98       0.982      0.002639  
   6   599   1     0     5     5  5.99       0.986      0.003959  
   6   600   1U    0     4     4  5.99       0.986      0.003959  
   6   600   2U    0     4     4  5.99       0.986      0.0009897 
   6   600   3     0     3     3  5.99       0.986      0.0002474 
   6   601   1     0     3     3  5.99       0.986      0.0002474 
   6   602   1     0     3     3  5.99       0.987      0.0003711 
   6   603   1     0     3     3  5.99       0.987      0.0005567 
   6   604   1     0     3     3  5.99       0.988      0.0008351 
   6   605   1     0     3     3  5.99       0.989      0.001253  
   6   606   1     0     4     4  5.99       0.991      0.001879  
   6   607   1U    0     4     4  5.99       0.991      0.002818  
   6   607   2U    0     4     4  5.99       0.991      0.0007046 
   6   607   3     0     3     3  5.99       0.991      0.0001761 
   6   608   1     0     3     3  5.99       0.992      0.0002642 
   6   609   1     0     3     3  5.99       0.992      0.0003963 
   6   610   1     0     3     3  5.99       0.993      0.0005945 
   6   611   1     0     3     3  5.99       0.993      0.0008918 
   6   612   1     0     3     3  5.99       0.995      0.001338  
   6   613   1     0     4     4  6.00       0.997      0.002006  
   6   614   1U    0     4     4  6.00       0.997      0.003010  
   6   614   2     0     4     4  6.00       0.998      0.0007524 
   6   615   1U    0     4     4  6.00       0.998      0.001129  
   6   615   2U    0     4     4  6.00       0.998      0.0002822 
   6   615   3     0     2     2  6.00       0.998      7.054e-05 
   6   616   1     0     3     3  6.00       0.998      0.0001058 
   6   617   1     0     3     3  6.00       0.998      0.0001587 
   6   618   1     0     3     3  6.00       0.998      0.0002381 
   6   619   1     0     3     3  6.00       0.998      0.0003571 
   6   620   1     0     3     3  6.00       0.999      0.0005357 
   6   621   1     0     3     3  6.00       1.00       0.0008035 
   6   622   1     0     3     3  6.00       1.00       0.0002166 
                          
 THE ANALYSIS HAS COMPLETED SUCCESSFULLY
