*Heading
** Job name: Job-1 Model name: Model-1
** Generated by: Abaqus/CAE Learning Edition 2025
*Preprint, echo=NO, model=NO, history=NO, contact=NO
**
** PARTS
**
*Part, name=Coupler
*Node
      1,           0.,           0.
      2,        0.125,           0.
      3,         0.25,           0.
      4,        0.375,           0.
      5,          0.5,           0.
      6,        0.625,           0.
      7,         0.75,           0.
      8,        0.875,           0.
      9,           1.,           0.
     10,        1.125,           0.
     11,         1.25,           0.
     12,        1.375,           0.
     13,          1.5,           0.
     14,        1.625,           0.
     15,         1.75,           0.
     16,        1.875,           0.
     17,           2.,           0.
     18,        2.125,           0.
     19,         2.25,           0.
     20,        2.375,           0.
** ... 21 like lines cut
*Element, type=B21
 1,  1,  2
 2,  2,  3
 3,  3,  4
 4,  4,  5
 5,  5,  6
 6,  6,  7
 7,  7,  8
 8,  8,  9
 9,  9, 10
10, 10, 11
11, 11, 12
12, 12, 13
13, 13, 14
14, 14, 15
15, 15, 16
16, 16, 17
17, 17, 18
18, 18, 19
19, 19, 20
20, 20, 21
** ... 20 like lines cut
*Nset, nset=Set-4, generate
  1,  41,   1
*Elset, elset=Set-4, generate
  1,  40,   1
*Nset, nset=Set-5, generate
  1,  41,   1
*Elset, elset=Set-5, generate
  1,  40,   1
*Nset, nset=CouplerTip
 1,
*Nset, nset=CouplerSlider
 41,
** Section: Section-1  Profile: Profile-1
*Beam Section, elset=Set-4, material=CouplerMaterial, temperature=GRADIENTS, section=RECT
0.05, 0.1
0.,0.,-1.
*End Part
**  
*Part, name=Crank
*Node
      1,  0.441960096,          0.5
      2,   1.42797339,  0.333333343
      3,   2.41398668,  0.166666672
      4,    3.4000001,           0.
*Element, type=B21
1, 1, 2
2, 2, 3
3, 3, 4
*Nset, nset=Set-3, generate
 1,  4,  1
*Elset, elset=Set-3, generate
 1,  3,  1
*Nset, nset=Set-4, generate
 1,  4,  1
*Elset, elset=Set-4, generate
 1,  3,  1
*Nset, nset=CrankRP
 1,
*Nset, nset=CrankTip
 4,
** Section: Section-2  Profile: Profile-1
*Beam Section, elset=Set-3, material=StiffBoi, temperature=GRADIENTS, section=RECT
0.05, 0.1
0.,0.,-1.
*End Part
**  
**
** ASSEMBLY
**
*Assembly, name=Assembly
**  
*Instance, name=Coupler-1, part=Coupler
         3.4,           0.,           0.
*End Instance
**  
*Instance, name=Crank-1, part=Crank
*End Instance
**  
*Surface, type=NODE, name=Crank-1_CrankTip_CNS_, internal
Crank-1.CrankTip, 1.
** Constraint: A
*MPC
PIN, Crank-1.CrankTip, Coupler-1.CouplerTip
*End Assembly
** 
** MATERIALS
** 
*Material, name=CouplerMaterial
*Elastic
 1.4e+09, 0.3
*Material, name=StiffBoi
*Elastic
 2.1e+11, 0.3
** 
** BOUNDARY CONDITIONS
** 
** Name: CrankO Type: Displacement/Rotation
*Boundary
Crank-1.CrankRP, 1, 1
Crank-1.CrankRP, 2, 2
** Name: Slider Type: Displacement/Rotation
*Boundary
Coupler-1.CouplerSlider, 2, 2
** ----------------------------------------------------------------
** 
** STEP: Step-1
** 
*Step, name=Step-1, nlgeom=YES, inc=1000
*Static
0.0001, 1., 1e-05, 0.01
** 
** BOUNDARY CONDITIONS
** 
** Name: Input Type: Displacement/Rotation
*Boundary
Crank-1.CrankRP, 6, 6, 1.
** 
** OUTPUT REQUESTS
** 
*Restart, write, frequency=0
** 
** FIELD OUTPUT: F-Output-1
** 
*Output, field, variable=PRESELECT
** 
** HISTORY OUTPUT: H-Output-1
** 
*Output, history, variable=PRESELECT
*End Step
** ----------------------------------------------------------------
** 
** STEP: Step-2
** 
*Step, name=Step-2, nlgeom=YES, inc=1000
*Static
0.0001, 1., 1e-05, 0.01
** 
** BOUNDARY CONDITIONS
** 
** Name: Input Type: Displacement/Rotation
*Boundary
Crank-1.CrankRP, 6, 6, 2.
** 
** OUTPUT REQUESTS
** 
*Restart, write, frequency=0
** 
** FIELD OUTPUT: F-Output-1
** 
*Output, field, variable=PRESELECT
** 
** HISTORY OUTPUT: H-Output-1
** 
*Output, history, variable=PRESELECT
*End Step
** ----------------------------------------------------------------
** 
** STEP: Step-3
** 
*Step, name=Step-3, nlgeom=YES, inc=1000
*Static
0.0001, 1., 1e-05, 0.01
** 
** BOUNDARY CONDITIONS
** 
** Name: Input Type: Displacement/Rotation
*Boundary
Crank-1.CrankRP, 6, 6, 3.
** 
** OUTPUT REQUESTS
** 
*Restart, write, frequency=0
** 
** FIELD OUTPUT: F-Output-1
** 
*Output, field, variable=PRESELECT
** 
** HISTORY OUTPUT: H-Output-1
** 
*Output, history, variable=PRESELECT
*End Step
** ----------------------------------------------------------------
** 
** STEP: Step-4
** 
*Step, name=Step-4, nlgeom=YES, inc=1000
*Static
0.0001, 1., 1e-05, 0.01
** 
** BOUNDARY CONDITIONS
** 
** Name: Input Type: Displacement/Rotation
*Boundary
Crank-1.CrankRP, 6, 6, 4.
** 
** OUTPUT REQUESTS
** 
*Restart, write, frequency=0
** 
** FIELD OUTPUT: F-Output-1
** 
*Output, field, variable=PRESELECT
** 
** HISTORY OUTPUT: H-Output-1
** 
*Output, history, variable=PRESELECT
*End Step
** ----------------------------------------------------------------
** 
** STEP: Step-5
** 
*Step, name=Step-5, nlgeom=YES, inc=1000
*Static
0.0001, 1., 1e-05, 0.01
** 
** BOUNDARY CONDITIONS
** 
** Name: Input Type: Displacement/Rotation
*Boundary
Crank-1.CrankRP, 6, 6, 5.
** 
** OUTPUT REQUESTS
** 
*Restart, write, frequency=0
** 
** FIELD OUTPUT: F-Output-1
** 
*Output, field, variable=PRESELECT
** 
** HISTORY OUTPUT: H-Output-1
** 
*Output, history, variable=PRESELECT
*End Step
** ----------------------------------------------------------------
** 
** STEP: Step-6
** 
*Step, name=Step-6, nlgeom=YES, inc=1000
*Static
0.0001, 1., 1e-05, 0.01
** 
** BOUNDARY CONDITIONS
** 
** Name: Input Type: Displacement/Rotation
*Boundary
Crank-1.CrankRP, 6, 6, 6.28
** 
** OUTPUT REQUESTS
** 
*Restart, write, frequency=0
** 
** FIELD OUTPUT: F-Output-1
** 
*Output, field, variable=PRESELECT
** 
** HISTORY OUTPUT: H-Output-1
** 
*Output, history, variable=PRESELECT
*End Step
