 Abaqus/Standard Learning Edition 2025                  DATE 24-Apr-2026 TIME 19:05:01
 SUMMARY OF JOB INFORMATION:
 STEP  INC ATT SEVERE EQUIL TOTAL  TOTAL      STEP       INC OF       DOF    IF
               DISCON ITERS ITERS  TIME/    TIME/LPF    TIME/LPF    MONITOR RIKS
               ITERS               FREQ
   1     1   1     0     2     2  0.000100   0.000100   0.0001000 
   1     2   1     0     1     1  0.000200   0.000200   0.0001000 
   1     3   1     0     1     1  0.000350   0.000350   0.0001500 
   1     4   1     0     1     1  0.000575   0.000575   0.0002250 
   1     5   1     0     1     1  0.000913   0.000913   0.0003375 
   1     6   1     0     2     2  0.00142    0.00142    0.0005062 
   1     7   1     0     2     2  0.00218    0.00218    0.0007594 
   1     8   1     0     2     2  0.00332    0.00332    0.001139  
   1     9   1     0     2     2  0.00503    0.00503    0.001709  
   1    10   1     0     2     2  0.00759    0.00759    0.002563  
   1    11   1     0     2     2  0.0114     0.0114     0.003844  
   1    12   1     0     2     2  0.0172     0.0172     0.005767  
   1    13   1     0     2     2  0.0258     0.0258     0.008650  
   1    14   1     0     2     2  0.0358     0.0358     0.01000   
   1    15   1     0     2     2  0.0458     0.0458     0.01000   
   1    16   1     0     2     2  0.0558     0.0558     0.01000   
   1    17   1     0     2     2  0.0658     0.0658     0.01000   
   1    18   1     0     2     2  0.0758     0.0758     0.01000   
   1    19   1     0     2     2  0.0858     0.0858     0.01000   
   1    20   1     0     2     2  0.0958     0.0958     0.01000   
   1    21   1     0     2     2  0.106      0.106      0.01000   
   1    22   1     0     2     2  0.116      0.116      0.01000   
   1    23   1     0     2     2  0.126      0.126      0.01000   
   1    24   1     0     2     2  0.136      0.136      0.01000   
   1    25   1     0     2     2  0.146      0.146      0.01000   
   1    26   1     0     2     2  0.156      0.156      0.01000   
   1    27   1     0     2     2  0.166      0.166      0.01000   
   1    28   1     0     2     2  0.176      0.176      0.01000   
   1    29   1     0     2     2  0.186      0.186      0.01000   
   1    30   1     0     2     2  0.196      0.196      0.01000   
   1    31   1     0     2     2  0.206      0.206      0.01000   
   1    32   1     0     2     2  0.216      0.216      0.01000   
   1    33   1     0     2     2  0.226      0.226      0.01000   
   1    34   1     0     2     2  0.236      0.236      0.01000   
   1    35   1     0     2     2  0.246      0.246      0.01000   
   1    36   1     0     2     2  0.256      0.256      0.01000   
   1    37   1     0     2     2  0.266      0.266      0.01000   
   1    38   1     0     2     2  0.276      0.276      0.01000   
   1    39   1     0     2     2  0.286      0.286      0.01000   
   1    40   1     0     2     2  0.296      0.296      0.01000   
   1    41   1     0     2     2  0.306      0.306      0.01000   
   1    42   1     0     2     2  0.316      0.316      0.01000   
   1    43   1     0     2     2  0.326      0.326      0.01000   
   1    44   1     0     2     2  0.336      0.336      0.01000   
   1    45   1     0     2     2  0.346      0.346      0.01000   
   1    46   1     0     2     2  0.356      0.356      0.01000   
   1    47   1     0     2     2  0.366      0.366      0.01000   
   1    48   1     0     2     2  0.376      0.376      0.01000   
   1    49   1     0     2     2  0.386      0.386      0.01000   
   1    50   1     0     2     2  0.396      0.396      0.01000   
   1    51   1     0     2     2  0.406      0.406      0.01000   
   1    52   1     0     2     2  0.416      0.416      0.01000   
   1    53   1     0     2     2  0.426      0.426      0.01000   
   1    54   1     0     2     2  0.436      0.436      0.01000   
   1    55   1     0     2     2  0.446      0.446      0.01000   
   1    56   1     0     2     2  0.456      0.456      0.01000   
   1    57   1     0     2     2  0.466      0.466      0.01000   
   1    58   1     0     2     2  0.476      0.476      0.01000   
   1    59   1     0     2     2  0.486      0.486      0.01000   
   1    60   1     0     2     2  0.496      0.496      0.01000   
   1    61   1     0     2     2  0.506      0.506      0.01000   
   1    62   1     0     2     2  0.516      0.516      0.01000   
   1    63   1     0     2     2  0.526      0.526      0.01000   
   1    64   1     0     2     2  0.536      0.536      0.01000   
   1    65   1     0     2     2  0.546      0.546      0.01000   
   1    66   1     0     2     2  0.556      0.556      0.01000   
   1    67   1     0     2     2  0.566      0.566      0.01000   
   1    68   1     0     2     2  0.576      0.576      0.01000   
   1    69   1     0     2     2  0.586      0.586      0.01000   
   1    70   1     0     2     2  0.596      0.596      0.01000   
   1    71   1     0     2     2  0.606      0.606      0.01000   
   1    72   1     0     2     2  0.616      0.616      0.01000   
   1    73   1     0     2     2  0.626      0.626      0.01000   
   1    74   1     0     2     2  0.636      0.636      0.01000   
   1    75   1     0     2     2  0.646      0.646      0.01000   
   1    76   1     0     2     2  0.656      0.656      0.01000   
   1    77   1     0     2     2  0.666      0.666      0.01000   
   1    78   1     0     2     2  0.676      0.676      0.01000   
   1    79   1     0     2     2  0.686      0.686      0.01000   
   1    80   1     0     2     2  0.696      0.696      0.01000   
   1    81   1     0     2     2  0.706      0.706      0.01000   
   1    82   1     0     2     2  0.716      0.716      0.01000   
   1    83   1     0     2     2  0.726      0.726      0.01000   
   1    84   1     0     2     2  0.736      0.736      0.01000   
   1    85   1     0     2     2  0.746      0.746      0.01000   
   1    86   1     0     2     2  0.756      0.756      0.01000   
   1    87   1     0     2     2  0.766      0.766      0.01000   
   1    88   1     0     2     2  0.776      0.776      0.01000   
   1    89   1     0     2     2  0.786      0.786      0.01000   
   1    90   1     0     2     2  0.796      0.796      0.01000   
   1    91   1     0     2     2  0.806      0.806      0.01000   
   1    92   1     0     2     2  0.816      0.816      0.01000   
   1    93   1     0     2     2  0.826      0.826      0.01000   
   1    94   1     0     2     2  0.836      0.836      0.01000   
   1    95   1     0     2     2  0.846      0.846      0.01000   
   1    96   1     0     2     2  0.856      0.856      0.01000   
   1    97   1     0     2     2  0.866      0.866      0.01000   
   1    98   1     0     2     2  0.876      0.876      0.01000   
   1    99   1     0     2     2  0.886      0.886      0.01000   
   1   100   1     0     2     2  0.896      0.896      0.01000   
   1   101   1     0     2     2  0.906      0.906      0.01000   
   1   102   1     0     2     2  0.916      0.916      0.01000   
   1   103   1     0     2     2  0.926      0.926      0.01000   
   1   104   1     0     2     2  0.936      0.936      0.01000   
   1   105   1     0     2     2  0.946      0.946      0.01000   
   1   106   1     0     2     2  0.956      0.956      0.01000   
   1   107   1     0     2     2  0.966      0.966      0.01000   
   1   108   1     0     2     2  0.976      0.976      0.01000   
   1   109   1     0     2     2  0.986      0.986      0.01000   
   1   110   1     0     2     2  0.996      0.996      0.01000   
   1   111   1     0     2     2  1.00       1.00       0.004151  
   2     1   1     0     2     2  1.00       0.000100   0.0001000 
   2     2   1     0     1     1  1.00       0.000200   0.0001000 
   2     3   1     0     1     1  1.00       0.000350   0.0001500 
   2     4   1     0     1     1  1.00       0.000575   0.0002250 
   2     5   1     0     1     1  1.00       0.000913   0.0003375 
   2     6   1     0     2     2  1.00       0.00142    0.0005062 
   2     7   1     0     2     2  1.00       0.00218    0.0007594 
   2     8   1     0     2     2  1.00       0.00332    0.001139  
   2     9   1     0     2     2  1.01       0.00503    0.001709  
   2    10   1     0     2     2  1.01       0.00759    0.002563  
   2    11   1     0     2     2  1.01       0.0114     0.003844  
   2    12   1     0     2     2  1.02       0.0172     0.005767  
   2    13   1     0     2     2  1.03       0.0258     0.008650  
   2    14   1     0     2     2  1.04       0.0358     0.01000   
   2    15   1     0     2     2  1.05       0.0458     0.01000   
   2    16   1     0     2     2  1.06       0.0558     0.01000   
   2    17   1     0     2     2  1.07       0.0658     0.01000   
   2    18   1     0     2     2  1.08       0.0758     0.01000   
   2    19   1     0     2     2  1.09       0.0858     0.01000   
   2    20   1     0     2     2  1.10       0.0958     0.01000   
   2    21   1     0     2     2  1.11       0.106      0.01000   
   2    22   1     0     2     2  1.12       0.116      0.01000   
   2    23   1     0     2     2  1.13       0.126      0.01000   
   2    24   1     0     2     2  1.14       0.136      0.01000   
   2    25   1     0     2     2  1.15       0.146      0.01000   
   2    26   1     0     2     2  1.16       0.156      0.01000   
   2    27   1     0     2     2  1.17       0.166      0.01000   
   2    28   1     0     2     2  1.18       0.176      0.01000   
   2    29   1     0     2     2  1.19       0.186      0.01000   
   2    30   1     0     2     2  1.20       0.196      0.01000   
   2    31   1     0     2     2  1.21       0.206      0.01000   
   2    32   1     0     2     2  1.22       0.216      0.01000   
   2    33   1     0     2     2  1.23       0.226      0.01000   
   2    34   1     0     2     2  1.24       0.236      0.01000   
   2    35   1     0     2     2  1.25       0.246      0.01000   
   2    36   1     0     2     2  1.26       0.256      0.01000   
   2    37   1     0     2     2  1.27       0.266      0.01000   
   2    38   1     0     2     2  1.28       0.276      0.01000   
   2    39   1     0     2     2  1.29       0.286      0.01000   
   2    40   1     0     2     2  1.30       0.296      0.01000   
   2    41   1     0     2     2  1.31       0.306      0.01000   
   2    42   1     0     2     2  1.32       0.316      0.01000   
   2    43   1     0     2     2  1.33       0.326      0.01000   
   2    44   1     0     2     2  1.34       0.336      0.01000   
   2    45   1     0     2     2  1.35       0.346      0.01000   
   2    46   1     0     2     2  1.36       0.356      0.01000   
   2    47   1     0     2     2  1.37       0.366      0.01000   
   2    48   1     0     2     2  1.38       0.376      0.01000   
   2    49   1     0     2     2  1.39       0.386      0.01000   
   2    50   1     0     2     2  1.40       0.396      0.01000   
   2    51   1     0     2     2  1.41       0.406      0.01000   
   2    52   1     0     2     2  1.42       0.416      0.01000   
   2    53   1     0     2     2  1.43       0.426      0.01000   
   2    54   1     0     2     2  1.44       0.436      0.01000   
   2    55   1     0     2     2  1.45       0.446      0.01000   
   2    56   1     0     2     2  1.46       0.456      0.01000   
   2    57   1     0     2     2  1.47       0.466      0.01000   
   2    58   1     0     2     2  1.48       0.476      0.01000   
   2    59   1     0     2     2  1.49       0.486      0.01000   
   2    60   1     0     2     2  1.50       0.496      0.01000   
   2    61   1     0     2     2  1.51       0.506      0.01000   
   2    62   1     0     2     2  1.52       0.516      0.01000   
   2    63   1     0     2     2  1.53       0.526      0.01000   
   2    64   1     0     2     2  1.54       0.536      0.01000   
   2    65   1     0     2     2  1.55       0.546      0.01000   
   2    66   1     0     2     2  1.56       0.556      0.01000   
   2    67   1     0     2     2  1.57       0.566      0.01000   
   2    68   1     0     2     2  1.58       0.576      0.01000   
   2    69   1     0     2     2  1.59       0.586      0.01000   
   2    70   1     0     2     2  1.60       0.596      0.01000   
   2    71   1     0     2     2  1.61       0.606      0.01000   
   2    72   1     0     2     2  1.62       0.616      0.01000   
   2    73   1     0     2     2  1.63       0.626      0.01000   
   2    74   1     0     2     2  1.64       0.636      0.01000   
   2    75   1     0     2     2  1.65       0.646      0.01000   
   2    76   1     0     2     2  1.66       0.656      0.01000   
   2    77   1     0     2     2  1.67       0.666      0.01000   
   2    78   1     0     2     2  1.68       0.676      0.01000   
   2    79   1     0     2     2  1.69       0.686      0.01000   
   2    80   1     0     2     2  1.70       0.696      0.01000   
   2    81   1     0     2     2  1.71       0.706      0.01000   
   2    82   1     0     2     2  1.72       0.716      0.01000   
   2    83   1     0     2     2  1.73       0.726      0.01000   
   2    84   1     0     2     2  1.74       0.736      0.01000   
   2    85   1     0     2     2  1.75       0.746      0.01000   
   2    86   1     0     2     2  1.76       0.756      0.01000   
   2    87   1     0     2     2  1.77       0.766      0.01000   
   2    88   1     0     2     2  1.78       0.776      0.01000   
   2    89   1     0     2     2  1.79       0.786      0.01000   
   2    90   1     0     2     2  1.80       0.796      0.01000   
   2    91   1     0     2     2  1.81       0.806      0.01000   
   2    92   1     0     2     2  1.82       0.816      0.01000   
   2    93   1     0     2     2  1.83       0.826      0.01000   
   2    94   1     0     2     2  1.84       0.836      0.01000   
   2    95   1     0     2     2  1.85       0.846      0.01000   
   2    96   1     0     2     2  1.86       0.856      0.01000   
   2    97   1     0     2     2  1.87       0.866      0.01000   
   2    98   1     0     2     2  1.88       0.876      0.01000   
   2    99   1     0     2     2  1.89       0.886      0.01000   
   2   100   1     0     2     2  1.90       0.896      0.01000   
   2   101   1     0     2     2  1.91       0.906      0.01000   
   2   102   1     0     2     2  1.92       0.916      0.01000   
   2   103   1     0     2     2  1.93       0.926      0.01000   
   2   104   1     0     2     2  1.94       0.936      0.01000   
   2   105   1     0     2     2  1.95       0.946      0.01000   
   2   106   1     0     2     2  1.96       0.956      0.01000   
   2   107   1     0     2     2  1.97       0.966      0.01000   
   2   108   1     0     2     2  1.98       0.976      0.01000   
   2   109   1     0     2     2  1.99       0.986      0.01000   
   2   110   1     0     2     2  2.00       0.996      0.01000   
   2   111   1     0     2     2  2.00       1.00       0.004151  
   3     1   1     0     2     2  2.00       0.000100   0.0001000 
   3     2   1     0     1     1  2.00       0.000200   0.0001000 
   3     3   1     0     1     1  2.00       0.000350   0.0001500 
   3     4   1     0     1     1  2.00       0.000575   0.0002250 
   3     5   1     0     1     1  2.00       0.000913   0.0003375 
   3     6   1     0     2     2  2.00       0.00142    0.0005062 
   3     7   1     0     2     2  2.00       0.00218    0.0007594 
   3     8   1     0     2     2  2.00       0.00332    0.001139  
   3     9   1     0     2     2  2.01       0.00503    0.001709  
   3    10   1     0     2     2  2.01       0.00759    0.002563  
   3    11   1     0     2     2  2.01       0.0114     0.003844  
   3    12   1     0     2     2  2.02       0.0172     0.005767  
   3    13   1     0     2     2  2.03       0.0258     0.008650  
   3    14   1     0     2     2  2.04       0.0358     0.01000   
   3    15   1     0     2     2  2.05       0.0458     0.01000   
   3    16   1     0     2     2  2.06       0.0558     0.01000   
   3    17   1     0     2     2  2.07       0.0658     0.01000   
   3    18   1     0     2     2  2.08       0.0758     0.01000   
   3    19   1     0     2     2  2.09       0.0858     0.01000   
   3    20   1     0     2     2  2.10       0.0958     0.01000   
   3    21   1     0     2     2  2.11       0.106      0.01000   
   3    22   1     0     2     2  2.12       0.116      0.01000   
   3    23   1     0     2     2  2.13       0.126      0.01000   
   3    24   1     0     2     2  2.14       0.136      0.01000   
   3    25   1     0     2     2  2.15       0.146      0.01000   
   3    26   1     0     2     2  2.16       0.156      0.01000   
   3    27   1     0     2     2  2.17       0.166      0.01000   
   3    28   1     0     2     2  2.18       0.176      0.01000   
   3    29   1     0     2     2  2.19       0.186      0.01000   
   3    30   1     0     2     2  2.20       0.196      0.01000   
   3    31   1     0     2     2  2.21       0.206      0.01000   
   3    32   1     0     2     2  2.22       0.216      0.01000   
   3    33   1     0     2     2  2.23       0.226      0.01000   
   3    34   1     0     2     2  2.24       0.236      0.01000   
   3    35   1     0     2     2  2.25       0.246      0.01000   
   3    36   1     0     2     2  2.26       0.256      0.01000   
   3    37   1     0     2     2  2.27       0.266      0.01000   
   3    38   1     0     2     2  2.28       0.276      0.01000   
   3    39   1     0     2     2  2.29       0.286      0.01000   
   3    40   1     0     2     2  2.30       0.296      0.01000   
   3    41   1     0     2     2  2.31       0.306      0.01000   
   3    42   1     0     2     2  2.32       0.316      0.01000   
   3    43   1     0     2     2  2.33       0.326      0.01000   
   3    44   1     0     2     2  2.34       0.336      0.01000   
   3    45   1     0     2     2  2.35       0.346      0.01000   
   3    46   1     0     2     2  2.36       0.356      0.01000   
   3    47   1     0     2     2  2.37       0.366      0.01000   
   3    48   1     0     2     2  2.38       0.376      0.01000   
   3    49   1     0     2     2  2.39       0.386      0.01000   
   3    50   1     0     2     2  2.40       0.396      0.01000   
   3    51   1     0     2     2  2.41       0.406      0.01000   
   3    52   1     0     2     2  2.42       0.416      0.01000   
   3    53   1     0     2     2  2.43       0.426      0.01000   
   3    54   1     0     2     2  2.44       0.436      0.01000   
   3    55   1     0     2     2  2.45       0.446      0.01000   
   3    56   1     0     2     2  2.46       0.456      0.01000   
   3    57   1     0     2     2  2.47       0.466      0.01000   
   3    58   1     0     2     2  2.48       0.476      0.01000   
   3    59   1     0     2     2  2.49       0.486      0.01000   
   3    60   1     0     2     2  2.50       0.496      0.01000   
   3    61   1     0     2     2  2.51       0.506      0.01000   
   3    62   1     0     2     2  2.52       0.516      0.01000   
   3    63   1     0     2     2  2.53       0.526      0.01000   
   3    64   1     0     2     2  2.54       0.536      0.01000   
   3    65   1     0     2     2  2.55       0.546      0.01000   
   3    66   1     0     2     2  2.56       0.556      0.01000   
   3    67   1     0     2     2  2.57       0.566      0.01000   
   3    68   1     0     2     2  2.58       0.576      0.01000   
   3    69   1     0     2     2  2.59       0.586      0.01000   
   3    70   1     0     2     2  2.60       0.596      0.01000   
   3    71   1     0     2     2  2.61       0.606      0.01000   
   3    72   1     0     2     2  2.62       0.616      0.01000   
   3    73   1     0     2     2  2.63       0.626      0.01000   
   3    74   1     0     2     2  2.64       0.636      0.01000   
   3    75   1     0     2     2  2.65       0.646      0.01000   
   3    76   1     0     2     2  2.66       0.656      0.01000   
   3    77   1     0     2     2  2.67       0.666      0.01000   
   3    78   1     0     2     2  2.68       0.676      0.01000   
   3    79   1     0     2     2  2.69       0.686      0.01000   
   3    80   1     0     2     2  2.70       0.696      0.01000   
   3    81   1     0     2     2  2.71       0.706      0.01000   
   3    82   1     0     2     2  2.72       0.716      0.01000   
   3    83   1     0     2     2  2.73       0.726      0.01000   
   3    84   1     0     2     2  2.74       0.736      0.01000   
   3    85   1     0     2     2  2.75       0.746      0.01000   
   3    86   1     0     2     2  2.76       0.756      0.01000   
   3    87   1     0     2     2  2.77       0.766      0.01000   
   3    88   1     0     2     2  2.78       0.776      0.01000   
   3    89   1     0     2     2  2.79       0.786      0.01000   
   3    90   1     0     2     2  2.80       0.796      0.01000   
   3    91   1     0     2     2  2.81       0.806      0.01000   
   3    92   1     0     2     2  2.82       0.816      0.01000   
   3    93   1     0     2     2  2.83       0.826      0.01000   
   3    94   1     0     2     2  2.84       0.836      0.01000   
   3    95   1     0     2     2  2.85       0.846      0.01000   
   3    96   1     0     2     2  2.86       0.856      0.01000   
   3    97   1     0     2     2  2.87       0.866      0.01000   
   3    98   1     0     2     2  2.88       0.876      0.01000   
   3    99   1     0     2     2  2.89       0.886      0.01000   
   3   100   1     0     2     2  2.90       0.896      0.01000   
   3   101   1     0     2     2  2.91       0.906      0.01000   
   3   102   1     0     2     2  2.92       0.916      0.01000   
   3   103   1     0     2     2  2.93       0.926      0.01000   
   3   104   1     0     2     2  2.94       0.936      0.01000   
   3   105   1     0     2     2  2.95       0.946      0.01000   
   3   106   1     0     2     2  2.96       0.956      0.01000   
   3   107   1     0     2     2  2.97       0.966      0.01000   
   3   108   1     0     2     2  2.98       0.976      0.01000   
   3   109   1     0     2     2  2.99       0.986      0.01000   
   3   110   1     0     2     2  3.00       0.996      0.01000   
   3   111   1     0     2     2  3.00       1.00       0.004151  
   4     1   1     0     2     2  3.00       0.000100   0.0001000 
   4     2   1     0     1     1  3.00       0.000200   0.0001000 
   4     3   1     0     1     1  3.00       0.000350   0.0001500 
   4     4   1     0     1     1  3.00       0.000575   0.0002250 
   4     5   1     0     1     1  3.00       0.000913   0.0003375 
   4     6   1     0     2     2  3.00       0.00142    0.0005062 
   4     7   1     0     2     2  3.00       0.00218    0.0007594 
   4     8   1     0     2     2  3.00       0.00332    0.001139  
   4     9   1     0     2     2  3.01       0.00503    0.001709  
   4    10   1     0     2     2  3.01       0.00759    0.002563  
   4    11   1     0     2     2  3.01       0.0114     0.003844  
   4    12   1     0     2     2  3.02       0.0172     0.005767  
   4    13   1     0     2     2  3.03       0.0258     0.008650  
   4    14   1     0     2     2  3.04       0.0358     0.01000   
   4    15   1     0     2     2  3.05       0.0458     0.01000   
   4    16   1     0     2     2  3.06       0.0558     0.01000   
   4    17   1     0     2     2  3.07       0.0658     0.01000   
   4    18   1     0     2     2  3.08       0.0758     0.01000   
   4    19   1     0     2     2  3.09       0.0858     0.01000   
   4    20   1     0     2     2  3.10       0.0958     0.01000   
   4    21   1     0     2     2  3.11       0.106      0.01000   
   4    22   1     0     2     2  3.12       0.116      0.01000   
   4    23   1     0     2     2  3.13       0.126      0.01000   
   4    24   1     0     2     2  3.14       0.136      0.01000   
   4    25   1     0     2     2  3.15       0.146      0.01000   
   4    26   1     0     2     2  3.16       0.156      0.01000   
   4    27   1     0     2     2  3.17       0.166      0.01000   
   4    28   1     0     2     2  3.18       0.176      0.01000   
   4    29   1     0     2     2  3.19       0.186      0.01000   
   4    30   1     0     2     2  3.20       0.196      0.01000   
   4    31   1     0     2     2  3.21       0.206      0.01000   
   4    32   1     0     2     2  3.22       0.216      0.01000   
   4    33   1     0     2     2  3.23       0.226      0.01000   
   4    34   1     0     2     2  3.24       0.236      0.01000   
   4    35   1     0     2     2  3.25       0.246      0.01000   
   4    36   1     0     2     2  3.26       0.256      0.01000   
   4    37   1     0     2     2  3.27       0.266      0.01000   
   4    38   1     0     2     2  3.28       0.276      0.01000   
   4    39   1     0     2     2  3.29       0.286      0.01000   
   4    40   1     0     2     2  3.30       0.296      0.01000   
   4    41   1     0     2     2  3.31       0.306      0.01000   
   4    42   1     0     2     2  3.32       0.316      0.01000   
   4    43   1     0     2     2  3.33       0.326      0.01000   
   4    44   1     0     2     2  3.34       0.336      0.01000   
   4    45   1     0     2     2  3.35       0.346      0.01000   
   4    46   1     0     2     2  3.36       0.356      0.01000   
   4    47   1     0     2     2  3.37       0.366      0.01000   
   4    48   1     0     2     2  3.38       0.376      0.01000   
   4    49   1     0     2     2  3.39       0.386      0.01000   
   4    50   1     0     2     2  3.40       0.396      0.01000   
   4    51   1     0     2     2  3.41       0.406      0.01000   
   4    52   1     0     2     2  3.42       0.416      0.01000   
   4    53   1     0     2     2  3.43       0.426      0.01000   
   4    54   1     0     2     2  3.44       0.436      0.01000   
   4    55   1     0     2     2  3.45       0.446      0.01000   
   4    56   1     0     2     2  3.46       0.456      0.01000   
   4    57   1     0     2     2  3.47       0.466      0.01000   
   4    58   1     0     2     2  3.48       0.476      0.01000   
   4    59   1     0     2     2  3.49       0.486      0.01000   
   4    60   1     0     2     2  3.50       0.496      0.01000   
   4    61   1     0     2     2  3.51       0.506      0.01000   
   4    62   1     0     2     2  3.52       0.516      0.01000   
   4    63   1     0     2     2  3.53       0.526      0.01000   
   4    64   1     0     2     2  3.54       0.536      0.01000   
   4    65   1     0     2     2  3.55       0.546      0.01000   
   4    66   1     0     2     2  3.56       0.556      0.01000   
   4    67   1     0     2     2  3.57       0.566      0.01000   
   4    68   1     0     2     2  3.58       0.576      0.01000   
   4    69   1     0     2     2  3.59       0.586      0.01000   
   4    70   1     0     2     2  3.60       0.596      0.01000   
   4    71   1     0     2     2  3.61       0.606      0.01000   
   4    72   1     0     2     2  3.62       0.616      0.01000   
   4    73   1     0     2     2  3.63       0.626      0.01000   
   4    74   1     0     2     2  3.64       0.636      0.01000   
   4    75   1     0     2     2  3.65       0.646      0.01000   
   4    76   1     0     2     2  3.66       0.656      0.01000   
   4    77   1     0     2     2  3.67       0.666      0.01000   
   4    78   1     0     2     2  3.68       0.676      0.01000   
   4    79   1     0     2     2  3.69       0.686      0.01000   
   4    80   1     0     2     2  3.70       0.696      0.01000   
   4    81   1     0     2     2  3.71       0.706      0.01000   
   4    82   1     0     2     2  3.72       0.716      0.01000   
   4    83   1     0     2     2  3.73       0.726      0.01000   
   4    84   1     0     2     2  3.74       0.736      0.01000   
   4    85   1     0     2     2  3.75       0.746      0.01000   
   4    86   1     0     2     2  3.76       0.756      0.01000   
   4    87   1     0     2     2  3.77       0.766      0.01000   
   4    88   1     0     2     2  3.78       0.776      0.01000   
   4    89   1     0     2     2  3.79       0.786      0.01000   
   4    90   1     0     2     2  3.80       0.796      0.01000   
   4    91   1     0     2     2  3.81       0.806      0.01000   
   4    92   1     0     2     2  3.82       0.816      0.01000   
   4    93   1     0     2     2  3.83       0.826      0.01000   
   4    94   1     0     2     2  3.84       0.836      0.01000   
   4    95   1     0     2     2  3.85       0.846      0.01000   
   4    96   1     0     2     2  3.86       0.856      0.01000   
   4    97   1     0     2     2  3.87       0.866      0.01000   
   4    98   1     0     2     2  3.88       0.876      0.01000   
   4    99   1     0     2     2  3.89       0.886      0.01000   
   4   100   1     0     2     2  3.90       0.896      0.01000   
   4   101   1     0     2     2  3.91       0.906      0.01000   
   4   102   1     0     2     2  3.92       0.916      0.01000   
   4   103   1     0     2     2  3.93       0.926      0.01000   
   4   104   1     0     2     2  3.94       0.936      0.01000   
   4   105   1     0     2     2  3.95       0.946      0.01000   
   4   106   1     0     2     2  3.96       0.956      0.01000   
   4   107   1     0     2     2  3.97       0.966      0.01000   
   4   108   1     0     2     2  3.98       0.976      0.01000   
   4   109   1     0     2     2  3.99       0.986      0.01000   
   4   110   1     0     2     2  4.00       0.996      0.01000   
   4   111   1     0     2     2  4.00       1.00       0.004151  
   5     1   1     0     2     2  4.00       0.000100   0.0001000 
   5     2   1     0     1     1  4.00       0.000200   0.0001000 
   5     3   1     0     1     1  4.00       0.000350   0.0001500 
   5     4   1     0     1     1  4.00       0.000575   0.0002250 
   5     5   1     0     1     1  4.00       0.000913   0.0003375 
   5     6   1     0     2     2  4.00       0.00142    0.0005062 
   5     7   1     0     2     2  4.00       0.00218    0.0007594 
   5     8   1     0     2     2  4.00       0.00332    0.001139  
   5     9   1     0     2     2  4.01       0.00503    0.001709  
   5    10   1     0     2     2  4.01       0.00759    0.002563  
   5    11   1     0     2     2  4.01       0.0114     0.003844  
   5    12   1     0     2     2  4.02       0.0172     0.005767  
   5    13   1     0     2     2  4.03       0.0258     0.008650  
   5    14   1     0     2     2  4.04       0.0358     0.01000   
   5    15   1     0     2     2  4.05       0.0458     0.01000   
   5    16   1     0     2     2  4.06       0.0558     0.01000   
   5    17   1     0     2     2  4.07       0.0658     0.01000   
   5    18   1     0     2     2  4.08       0.0758     0.01000   
   5    19   1     0     2     2  4.09       0.0858     0.01000   
   5    20   1     0     2     2  4.10       0.0958     0.01000   
   5    21   1     0     2     2  4.11       0.106      0.01000   
   5    22   1     0     2     2  4.12       0.116      0.01000   
   5    23   1     0     2     2  4.13       0.126      0.01000   
   5    24   1     0     2     2  4.14       0.136      0.01000   
   5    25   1     0     2     2  4.15       0.146      0.01000   
   5    26   1     0     2     2  4.16       0.156      0.01000   
   5    27   1     0     2     2  4.17       0.166      0.01000   
   5    28   1     0     2     2  4.18       0.176      0.01000   
   5    29   1     0     2     2  4.19       0.186      0.01000   
   5    30   1     0     2     2  4.20       0.196      0.01000   
   5    31   1     0     2     2  4.21       0.206      0.01000   
   5    32   1     0     2     2  4.22       0.216      0.01000   
   5    33   1     0     2     2  4.23       0.226      0.01000   
   5    34   1     0     2     2  4.24       0.236      0.01000   
   5    35   1     0     2     2  4.25       0.246      0.01000   
   5    36   1     0     2     2  4.26       0.256      0.01000   
   5    37   1     0     2     2  4.27       0.266      0.01000   
   5    38   1     0     2     2  4.28       0.276      0.01000   
   5    39   1     0     2     2  4.29       0.286      0.01000   
   5    40   1     0     2     2  4.30       0.296      0.01000   
   5    41   1     0     2     2  4.31       0.306      0.01000   
   5    42   1     0     2     2  4.32       0.316      0.01000   
   5    43   1     0     2     2  4.33       0.326      0.01000   
   5    44   1     0     2     2  4.34       0.336      0.01000   
   5    45   1     0     2     2  4.35       0.346      0.01000   
   5    46   1     0     2     2  4.36       0.356      0.01000   
   5    47   1     0     2     2  4.37       0.366      0.01000   
   5    48   1     0     2     2  4.38       0.376      0.01000   
   5    49   1     0     2     2  4.39       0.386      0.01000   
   5    50   1     0     2     2  4.40       0.396      0.01000   
   5    51   1     0     2     2  4.41       0.406      0.01000   
   5    52   1     0     2     2  4.42       0.416      0.01000   
   5    53   1     0     2     2  4.43       0.426      0.01000   
   5    54   1     0     2     2  4.44       0.436      0.01000   
   5    55   1     0     2     2  4.45       0.446      0.01000   
   5    56   1     0     2     2  4.46       0.456      0.01000   
   5    57   1     0     2     2  4.47       0.466      0.01000   
   5    58   1     0     2     2  4.48       0.476      0.01000   
   5    59   1     0     2     2  4.49       0.486      0.01000   
   5    60   1     0     2     2  4.50       0.496      0.01000   
   5    61   1     0     2     2  4.51       0.506      0.01000   
   5    62   1     0     2     2  4.52       0.516      0.01000   
   5    63   1     0     2     2  4.53       0.526      0.01000   
   5    64   1     0     2     2  4.54       0.536      0.01000   
   5    65   1     0     2     2  4.55       0.546      0.01000   
   5    66   1     0     2     2  4.56       0.556      0.01000   
   5    67   1     0     2     2  4.57       0.566      0.01000   
   5    68   1     0     2     2  4.58       0.576      0.01000   
   5    69   1     0     2     2  4.59       0.586      0.01000   
   5    70   1     0     2     2  4.60       0.596      0.01000   
   5    71   1     0     2     2  4.61       0.606      0.01000   
   5    72   1     0     2     2  4.62       0.616      0.01000   
   5    73   1     0     2     2  4.63       0.626      0.01000   
   5    74   1     0     2     2  4.64       0.636      0.01000   
   5    75   1     0     2     2  4.65       0.646      0.01000   
   5    76   1     0     2     2  4.66       0.656      0.01000   
   5    77   1     0     2     2  4.67       0.666      0.01000   
   5    78   1     0     2     2  4.68       0.676      0.01000   
   5    79   1     0     2     2  4.69       0.686      0.01000   
   5    80   1     0     2     2  4.70       0.696      0.01000   
   5    81   1     0     2     2  4.71       0.706      0.01000   
   5    82   1     0     2     2  4.72       0.716      0.01000   
   5    83   1     0     2     2  4.73       0.726      0.01000   
   5    84   1     0     2     2  4.74       0.736      0.01000   
   5    85   1     0     2     2  4.75       0.746      0.01000   
   5    86   1     0     2     2  4.76       0.756      0.01000   
   5    87   1     0     2     2  4.77       0.766      0.01000   
   5    88   1     0     2     2  4.78       0.776      0.01000   
   5    89   1     0     2     2  4.79       0.786      0.01000   
   5    90   1     0     2     2  4.80       0.796      0.01000   
   5    91   1     0     2     2  4.81       0.806      0.01000   
   5    92   1     0     2     2  4.82       0.816      0.01000   
   5    93   1     0     2     2  4.83       0.826      0.01000   
   5    94   1     0     2     2  4.84       0.836      0.01000   
   5    95   1     0     2     2  4.85       0.846      0.01000   
   5    96   1     0     2     2  4.86       0.856      0.01000   
   5    97   1     0     2     2  4.87       0.866      0.01000   
   5    98   1     0     2     2  4.88       0.876      0.01000   
   5    99   1     0     2     2  4.89       0.886      0.01000   
   5   100   1     0     2     2  4.90       0.896      0.01000   
   5   101   1     0     2     2  4.91       0.906      0.01000   
   5   102   1     0     2     2  4.92       0.916      0.01000   
   5   103   1     0     2     2  4.93       0.926      0.01000   
   5   104   1     0     2     2  4.94       0.936      0.01000   
   5   105   1     0     2     2  4.95       0.946      0.01000   
   5   106   1     0     2     2  4.96       0.956      0.01000   
   5   107   1     0     2     2  4.97       0.966      0.01000   
   5   108   1     0     2     2  4.98       0.976      0.01000   
   5   109   1     0     2     2  4.99       0.986      0.01000   
   5   110   1     0     2     2  5.00       0.996      0.01000   
   5   111   1     0     2     2  5.00       1.00       0.004151  
   6     1   1     0     2     2  5.00       0.000100   0.0001000 
   6     2   1     0     1     1  5.00       0.000200   0.0001000 
   6     3   1     0     1     1  5.00       0.000350   0.0001500 
   6     4   1     0     1     1  5.00       0.000575   0.0002250 
   6     5   1     0     1     1  5.00       0.000913   0.0003375 
   6     6   1     0     2     2  5.00       0.00142    0.0005062 
   6     7   1     0     2     2  5.00       0.00218    0.0007594 
   6     8   1     0     2     2  5.00       0.00332    0.001139  
   6     9   1     0     2     2  5.01       0.00503    0.001709  
   6    10   1     0     2     2  5.01       0.00759    0.002563  
   6    11   1     0     2     2  5.01       0.0114     0.003844  
   6    12   1     0     2     2  5.02       0.0172     0.005767  
   6    13   1     0     2     2  5.03       0.0258     0.008650  
   6    14   1     0     2     2  5.04       0.0358     0.01000   
   6    15   1     0     2     2  5.05       0.0458     0.01000   
   6    16   1     0     2     2  5.06       0.0558     0.01000   
   6    17   1     0     2     2  5.07       0.0658     0.01000   
   6    18   1     0     2     2  5.08       0.0758     0.01000   
   6    19   1     0     2     2  5.09       0.0858     0.01000   
   6    20   1     0     2     2  5.10       0.0958     0.01000   
   6    21   1     0     2     2  5.11       0.106      0.01000   
   6    22   1     0     2     2  5.12       0.116      0.01000   
   6    23   1     0     2     2  5.13       0.126      0.01000   
   6    24   1     0     2     2  5.14       0.136      0.01000   
   6    25   1     0     2     2  5.15       0.146      0.01000   
   6    26   1     0     2     2  5.16       0.156      0.01000   
   6    27   1     0     2     2  5.17       0.166      0.01000   
   6    28   1     0     2     2  5.18       0.176      0.01000   
   6    29   1     0     2     2  5.19       0.186      0.01000   
   6    30   1     0     2     2  5.20       0.196      0.01000   
   6    31   1     0     2     2  5.21       0.206      0.01000   
   6    32   1     0     2     2  5.22       0.216      0.01000   
   6    33   1     0     2     2  5.23       0.226      0.01000   
   6    34   1     0     2     2  5.24       0.236      0.01000   
   6    35   1     0     2     2  5.25       0.246      0.01000   
   6    36   1     0     2     2  5.26       0.256      0.01000   
   6    37   1     0     2     2  5.27       0.266      0.01000   
   6    38   1     0     2     2  5.28       0.276      0.01000   
   6    39   1     0     2     2  5.29       0.286      0.01000   
   6    40   1     0     2     2  5.30       0.296      0.01000   
   6    41   1     0     2     2  5.31       0.306      0.01000   
   6    42   1     0     2     2  5.32       0.316      0.01000   
   6    43   1     0     2     2  5.33       0.326      0.01000   
   6    44   1     0     2     2  5.34       0.336      0.01000   
   6    45   1     0     2     2  5.35       0.346      0.01000   
   6    46   1     0     2     2  5.36       0.356      0.01000   
   6    47   1     0     2     2  5.37       0.366      0.01000   
   6    48   1     0     2     2  5.38       0.376      0.01000   
   6    49   1     0     2     2  5.39       0.386      0.01000   
   6    50   1     0     2     2  5.40       0.396      0.01000   
   6    51   1     0     2     2  5.41       0.406      0.01000   
   6    52   1     0     2     2  5.42       0.416      0.01000   
   6    53   1     0     2     2  5.43       0.426      0.01000   
   6    54   1     0     2     2  5.44       0.436      0.01000   
   6    55   1     0     2     2  5.45       0.446      0.01000   
   6    56   1     0     2     2  5.46       0.456      0.01000   
   6    57   1     0     2     2  5.47       0.466      0.01000   
   6    58   1     0     2     2  5.48       0.476      0.01000   
   6    59   1     0     2     2  5.49       0.486      0.01000   
   6    60   1     0     2     2  5.50       0.496      0.01000   
   6    61   1     0     2     2  5.51       0.506      0.01000   
   6    62   1     0     2     2  5.52       0.516      0.01000   
   6    63   1     0     2     2  5.53       0.526      0.01000   
   6    64   1     0     2     2  5.54       0.536      0.01000   
   6    65   1     0     2     2  5.55       0.546      0.01000   
   6    66   1     0     2     2  5.56       0.556      0.01000   
   6    67   1     0     2     2  5.57       0.566      0.01000   
   6    68   1     0     2     2  5.58       0.576      0.01000   
   6    69   1     0     2     2  5.59       0.586      0.01000   
   6    70   1     0     2     2  5.60       0.596      0.01000   
   6    71   1     0     2     2  5.61       0.606      0.01000   
   6    72   1     0     2     2  5.62       0.616      0.01000   
   6    73   1     0     2     2  5.63       0.626      0.01000   
   6    74   1     0     2     2  5.64       0.636      0.01000   
   6    75   1     0     2     2  5.65       0.646      0.01000   
   6    76   1     0     2     2  5.66       0.656      0.01000   
   6    77   1     0     2     2  5.67       0.666      0.01000   
   6    78   1     0     2     2  5.68       0.676      0.01000   
   6    79   1     0     2     2  5.69       0.686      0.01000   
   6    80   1     0     2     2  5.70       0.696      0.01000   
   6    81   1     0     2     2  5.71       0.706      0.01000   
   6    82   1     0     2     2  5.72       0.716      0.01000   
   6    83   1     0     2     2  5.73       0.726      0.01000   
   6    84   1     0     2     2  5.74       0.736      0.01000   
   6    85   1     0     2     2  5.75       0.746      0.01000   
   6    86   1     0     2     2  5.76       0.756      0.01000   
   6    87   1     0     2     2  5.77       0.766      0.01000   
   6    88   1     0     2     2  5.78       0.776      0.01000   
   6    89   1     0     2     2  5.79       0.786      0.01000   
   6    90   1     0     2     2  5.80       0.796      0.01000   
   6    91   1     0     2     2  5.81       0.806      0.01000   
   6    92   1     0     2     2  5.82       0.816      0.01000   
   6    93   1     0     2     2  5.83       0.826      0.01000   
   6    94   1     0     2     2  5.84       0.836      0.01000   
   6    95   1     0     2     2  5.85       0.846      0.01000   
   6    96   1     0     2     2  5.86       0.856      0.01000   
   6    97   1     0     2     2  5.87       0.866      0.01000   
   6    98   1     0     2     2  5.88       0.876      0.01000   
   6    99   1     0     2     2  5.89       0.886      0.01000   
   6   100   1     0     2     2  5.90       0.896      0.01000   
   6   101   1     0     2     2  5.91       0.906      0.01000   
   6   102   1     0     2     2  5.92       0.916      0.01000   
   6   103   1     0     2     2  5.93       0.926      0.01000   
   6   104   1     0     2     2  5.94       0.936      0.01000   
   6   105   1     0     2     2  5.95       0.946      0.01000   
   6   106   1     0     2     2  5.96       0.956      0.01000   
   6   107   1     0     2     2  5.97       0.966      0.01000   
   6   108   1     0     2     2  5.98       0.976      0.01000   
   6   109   1     0     2     2  5.99       0.986      0.01000   
   6   110   1     0     2     2  6.00       0.996      0.01000   
   6   111   1     0     2     2  6.00       1.00       0.004151  
                          
 THE ANALYSIS HAS COMPLETED SUCCESSFULLY
